18
doi: 10.1021/jp2069489
O   2.172877856   1.509648730  -0.252314015
H   3.063977856   1.775048730   0.005885985
H   2.266077856   0.573648730  -0.562714015
O   2.203977856  -1.118751270  -0.873514015
H   2.024077856  -1.446051270  -1.763214015
H   1.428077856  -1.411651270  -0.330014015
O   0.085777856  -1.608851270   0.743785985
H   0.017777856  -0.742851270   1.182585985
H  -0.757622144  -1.676251270   0.248185985
O  -2.271822144  -1.420251270  -0.761914015
H  -3.114222144  -1.792151270  -0.473314015
H  -2.372422144  -0.449551270  -0.648814015
O  -2.230822144   1.301848730  -0.240414015
H  -2.111722144   1.939648730  -0.955014015
H  -1.434322144   1.403648730   0.322385985
O   0.040077856   1.251548730   1.377085985
H   0.117277856   1.725948730   2.213685985
H   0.871977856   1.446848730   0.875985985
