18
doi: 10.1021/jp2069489
O          0.00000        0.00000        0.00000
H          0.96500        0.00000        0.00000
H         -0.25436        0.00000       -0.95728
O         -0.86018       -0.27253       -2.54577
H         -1.35433        0.41704       -3.00550
H         -1.51187       -1.00697       -2.40733
O         -2.51837       -2.30094       -1.85398
H         -2.22561       -2.43885       -0.93616
H         -3.44839       -2.00755       -1.75125
O         -5.04657       -1.24635       -1.25628
H         -5.84951       -1.78102       -1.23100
H         -4.84227       -1.05305       -0.31500
O         -4.12061       -0.83853        1.32439
H         -4.02638        0.05391        1.67976
H         -3.20647       -1.19131        1.28598
O         -1.60452       -1.96714        0.91005
H         -1.17892       -2.57720        1.52448
H         -0.91661       -1.29426        0.67488
