36

O   -2.139998   0.312027  -2.678987
H   -2.568298   0.770610  -1.916829
H   -1.745855  -0.481022  -2.254472
O   -0.049032  -1.850089   2.794084
H   -0.713404  -1.229400   2.429791
H    0.129011  -2.454769   2.033581
O    1.381859   0.099161  -1.270139
H    1.106687   0.792721  -1.918335
H    0.580309  -0.490161  -1.236035
O   -0.709406   3.232604  -0.360013
H   -0.382261   2.913149  -1.236080
H   -0.107906   2.794005   0.276502
O   -2.821956   1.633012  -0.397088
H   -2.104798   2.330897  -0.358498
H   -3.653807   2.108206  -0.246405
O   -0.003648   1.901945  -2.641912
H    0.177029   2.291161  -3.511253
H   -0.813907   1.324292  -2.766225
O   -1.417331   0.006623   1.247710
H   -0.600710   0.574340   1.252467
H   -2.107540   0.575733   0.828888
O    0.593211  -3.134347   0.479796
H    1.487711  -2.704613   0.340646
H    0.749772  -4.090287   0.436545
O    2.828175  -1.718699   0.174191
H    2.527281  -1.035816  -0.461945
H    2.787652  -1.263240   1.048694
O    2.244625  -0.481515   2.535711
H    1.422637  -1.001760   2.765792
H    2.774124  -0.441934   3.346623
O   -0.826060  -1.389773  -0.966021
H   -0.415822  -2.217589  -0.616199
H   -1.113419  -0.924268  -0.134643
O    0.889210   1.376795   1.058789
H    1.152424   0.953354   0.197558
H    1.461008   0.921793   1.721114
