18

C  -4.697980000  -0.249690000   1.746215000
H  -4.927570000   0.755530000   2.111799000
H  -3.709180000  -0.561560000   2.093253000
H  -5.432280000  -0.961520000   2.128066000
C  -4.714100000  -0.247110000   0.301670000
N  -4.729750000  -0.234960000  -0.865260000
C  -5.181310000   2.853865000  -1.626100000
H  -5.488260000   3.811434000  -2.053310000
H  -5.857590000   2.068112000  -1.968630000
H  -4.170750000   2.611402000  -1.966640000
C  -5.187260000   2.919160000  -0.181450000
N  -5.181700000   2.970641000   0.983640000
C   4.602033000   0.321019000  -1.784800000
H   4.827650000  -0.662160000  -2.207910000
H   5.320558000   1.057980000  -2.148500000
H   3.601982000   0.643751000  -2.087520000
C   4.654967000   0.244048000  -0.343060000
N   4.691648000   0.166590000   0.820757000
