12

O   -0.141248   0.697631  -1.730432
H    0.242814  -0.189673  -1.416835
H   -1.005119   0.443947  -2.112489
O   -0.762131   1.584050   0.692328
H   -0.532969   1.308254  -0.258852
H   -0.047081   2.212817   0.917375
O    0.792236  -1.564224  -0.701763
H    1.763203  -1.445515  -0.726941
H    0.554182  -1.307118   0.251915
O    0.096569  -0.710534   1.716314
H   -0.260506   0.189212   1.406428
H   -0.716508  -1.210441   1.930137
