24
doi: 10.1021/ct6002912
O    -1.4224558105     1.2708793301     0.0032966151
H    -0.445443474      1.454037343     -0.0064745981
C    -1.9964619626     1.864996565     -1.1539748417
H    -3.0567744616     1.5971547678    -1.1733977139
H    -1.5293096909     1.5087121058    -2.0834315349
H    -1.9169866538     2.9603707775    -1.1221822916
O    -1.2544540782    -1.4248778924     0.1166909995
H    -1.4310321735    -0.4481958466     0.0601931505
C    -1.8800747807    -1.9223931739     1.2923620396
H    -1.6539307809    -2.9902356668     1.3625474891
H    -2.9712126459    -1.8026807553     1.2456637437
H    -1.5140644195    -1.4274960237     2.2035908851
O     1.4386885146    -1.2571420151    -0.0298989145
H     0.4656776085    -1.4308724145     0.0754269115
C     1.8868322424    -1.9498594806    -1.1877116188
H     2.9474125972    -1.7192376316    -1.3230665876
H     1.3444701816    -1.6450779572    -2.0943229556
H     1.7819343845    -3.0370099427    -1.0684592017
O     1.2736067077     1.4413907986    -0.0811612102
H     1.443440359      0.4624142647    -0.1048953071
C     1.9603582083     1.9814634581     1.0405098777
H     1.7465609325     3.053534892      1.0760999006
H     3.0467362683     1.8484035714     0.9455953833
H     1.6355170554     1.5289325353     1.9885800678