30
doi: 10.1021/ct6002912
O    -0.1010376782     1.5303942105    -0.4817413536
H     0.8851534409     1.4663013372    -0.487275694
C    -0.5737067146     1.4980739456    -1.8290312336
H    -1.6128664597     1.1590453854    -1.808849106
H     0.0096005324     0.8010497007    -2.4465323472
H    -0.5235946662     2.4952835359    -2.2879312423
O     2.5923441639     1.1135019961    -0.3994588817
H     2.6351689722     0.2063228543    -0.0176063123
C     3.2933800798     1.9903341717     0.4751413404
H     3.2024744244     3.0006143673     0.067663075
H     4.3607012435     1.7340473248     0.5298166796
H     2.8786938934     1.9846189974     1.4929743733
O     2.7053616501    -1.3828860475     0.7906254724
H     3.4927754857    -1.8931105116     0.5485553953
C     1.562080108     -2.2488267064     0.7056161075
H     0.6806850328    -1.6410895434     0.9216250837
H     1.6316418408    -3.0582145495     1.4434013277
H     1.4580045175    -2.6831187185    -0.2975127059
O    -1.2917970465    -0.359930992      0.9988269612
H    -0.8142410775     0.3426243465     0.47805023
C    -1.7412213547     0.2295804676     2.2128121485
H    -2.28326963      -0.5370761009     2.7741708076
H    -2.4196381004     1.0752431278     2.0339658208
H    -0.9009805906     0.5806281907     2.8288568776
O    -3.3050416432    -0.4753954467    -0.9456892225
H    -2.6574348904    -0.5184291918    -0.2079533868
C    -3.3327913431    -1.7431457048    -1.5655564751
H    -4.0440669542    -1.6908171069    -2.3967485025
H    -3.6694202781    -2.5427829833    -0.8848339173
H    -2.3544669579    -2.042707268     -1.9782315895