30
doi: 10.1021/ct6002912
O    -0.8871957286     1.5693055405    -1.350190657
H     0.0498614774     1.5680550289    -1.0146189983
C    -0.835286729      1.639095644     -2.7692041593
H    -1.8629976013     1.6060958882    -3.1426406561
H    -0.2771840619     0.8004562241    -3.2093943824
H    -0.3745813639     2.57790283      -3.1055409587
O    -2.1432313167    -0.6161239676    -0.4074593164
H    -1.6706284074     0.181943356     -0.7684397618
C    -3.4230201959    -0.203362932      0.0464374014
H    -3.9355007019    -1.0830178139     0.4474618987
H    -4.0292184628     0.201169892     -0.776139792
H    -3.3637530008     0.5581722399     0.8382150011
O     2.0127767166    -0.866562072      0.7468651391
H     1.1125165646    -1.2399979983     0.9466867155
C     2.7787260033    -1.881800797      0.1122688299
H     3.7588390298    -1.4589702229    -0.1267963818
H     2.3146857701    -2.2353307205    -0.8197833474
H     2.9252721888    -2.7444293893     0.7763752403
O     1.679203409      1.4599763028    -0.5569303163
H     1.8277310885     0.581264382     -0.113651677
C     2.1600100327     2.4759201698     0.3121034994
H     1.9619207929     3.4415483593    -0.162172686
H     3.2429011987     2.384288079      0.4729818685
H     1.6608359574     2.460137739      1.2918276032
O    -0.4237229873    -1.8990131216     1.2386185919
H    -1.086864322     -1.4808449201     0.6273012638
C    -0.8788465676    -1.7312873058     2.5731408816
H    -0.1068494281    -2.1253107269     3.2402849999
H    -1.8080590345    -2.2899884818     2.7534107248
H    -1.0510636885    -0.675193876      2.8289270772