48

O    3.073672   0.824351  -3.041152
H    3.585628   1.355768  -3.682145
H    2.433587   0.243965  -3.598960
O   -2.220201   0.551597  -0.357248
H   -3.058096   0.767288   0.158502
H   -1.550510   1.213771   0.021938
O   -0.440292  -0.075332  -2.266484
H   -1.296865   0.147143  -1.808654
H    0.221474   0.584314  -1.864973
O    1.371565  -0.782081  -4.197166
H    1.691382  -1.609278  -3.727958
H    0.546152  -0.546572  -3.697110
O    2.300706  -2.730354  -2.572755
H    3.071347  -2.199088  -2.148818
H    2.684477  -3.582983  -2.857231
O   -3.986922   1.095003   1.524357
H   -4.898606   1.443063   1.466077
H   -3.422901   1.851127   1.933957
O    0.387259   0.097389   2.284776
H   -0.079166   0.345441   3.142284
H   -0.253013  -0.575768   1.873194
O   -3.085693  -0.884361   3.123602
H   -2.517843  -1.355558   2.457098
H   -3.580580  -0.220601   2.555956
O   -1.379574   0.824546   4.106598
H   -2.066257   0.112194   3.820882
H   -1.342943   0.785511   5.082877
O    1.386586   1.473688  -1.123256
H    2.061340   1.488357  -1.871341
H    1.750651   0.749198  -0.511517
O   -2.335599   2.829203   2.568013
H   -1.616094   2.825477   1.882000
H   -1.972887   2.208445   3.268473
O   -1.361993  -1.502701   1.082608
H   -0.788099  -2.033559   0.464574
H   -1.741291  -0.771933   0.485246
O   -0.393723   2.127239   0.766649
H   -0.028016   1.400942   1.378316
H    0.293509   2.198022   0.047268
O    4.071590  -1.142576  -1.482752
H    3.592692  -0.927906  -0.638322
H    3.852072  -0.356592  -2.067905
O    2.181743  -0.554013   0.401595
H    1.774983  -0.332078   1.283944
H    1.526810  -1.218676  -0.004438
O    0.430668  -2.131811  -0.815149
H    1.073732  -2.603892  -1.430585
H    0.050056  -1.404089  -1.411215
