24

O    0.528254   2.158112   0.163610
H   -0.377110   1.968469  -0.302058
H    0.670695   3.123488   0.107304
O   -1.863140  -0.345830   1.158438
H   -1.054454  -0.029107   1.723257
H   -2.577775  -0.555056   1.791531
O   -1.672198   1.360857  -0.926409
H   -1.927422   0.796940  -0.140682
H   -1.238760   0.677215  -1.538834
O    1.740492  -1.356448   0.921144
H    0.943659  -1.831704   0.547603
H    1.989409  -0.763043   0.155778
O   -0.353042  -0.519487  -2.303934
H   -0.492561  -1.268765  -1.657696
H    0.556143  -0.199198  -2.038303
O    1.934162   0.381827  -1.147005
H    1.514639   1.180591  -0.682771
H    2.732617   0.723760  -1.594496
O   -0.591247  -2.204091  -0.187589
H   -1.192571  -1.602002   0.365344
H   -0.977890  -3.099033  -0.118942
O    0.320376   0.470497   2.268883
H    0.913698  -0.240058   1.850415
H    0.429020   1.232838   1.630198
