24

O    0.552584   2.276967   0.147284
H   -0.336025   1.999273  -0.289116
H    0.582073   3.242293   0.134809
O   -1.947786  -0.386186   1.217680
H   -1.093917  -0.062130   1.696353
H   -2.640068  -0.438383   1.889775
O   -1.595906   1.351226  -0.890194
H   -1.944375   0.793575  -0.162278
H   -1.232270   0.687413  -1.537749
O    1.766949  -1.372897   0.878167
H    1.014098  -1.886905   0.521506
H    2.034766  -0.802654   0.128988
O   -0.312690  -0.571443  -2.286782
H   -0.455420  -1.311474  -1.661457
H    0.590744  -0.261974  -2.074844
O    2.011541   0.484894  -1.173570
H    1.585976   1.258263  -0.714895
H    2.795029   0.826613  -1.623387
O   -0.676789  -2.274959  -0.124525
H   -1.272053  -1.676942   0.404205
H   -1.087606  -3.149479  -0.108015
O    0.260409   0.407036   2.184500
H    0.906230  -0.273482   1.845847
H    0.449502   1.202129   1.642482
