36
doi: 10.1002/qua.26222
C    3.959081   -1.37888   -1.23375
H    3.371240  -2.29183   -1.33965
H    4.981057   -1.56215   -1.57086
H    3.504217   -0.60225   -1.85308
C    3.953858   -0.94717    0.14273
N    3.944522   -0.59189    1.246264
C   -0.709940   0.9537   -2.02569
H   -1.727710   0.767111   -2.37801
H   -0.108120   0.046314   -2.11399
H   -0.246570   1.733179   -2.63254
C   -0.753170   1.362327   -0.64379
N   -0.798380   1.684028    0.469726
C    2.434429    2.387143    1.059595
H    3.008656    1.684202    1.667675
H    1.403823    2.427473    1.420454
H    2.880691    3.379658    1.144276
C    2.441263    1.947661   -0.31456
N    2.438656    1.58409   -1.4154
C   -3.939000  1.318414    1.297312
H   -4.956940   1.488572    1.652907
H   -3.349440   2.226642    1.43095
H   -3.478780   0.51817    1.881577
C   -3.949160   0.939541   -0.09456
N   -3.949750   0.626288   -1.2107
C    0.687365   -0.91752    2.046813
H    1.700004   -0.7272    2.411766
H    0.220388   -1.70131    2.645179
H    0.083309   -0.01113    2.131798
C    0.747025   -1.31915    0.663369
N    0.803341   -1.63173   -0.4522
C   -2.406430  -2.34293   -1.14999
H   -2.895060  -1.55911   -1.73426
H   -2.926130  -3.28792   -1.31865
H   -1.366290  -2.44312   -1.46925
C   -2.445110  -1.98943    0.248374
N   -2.469770  -1.69472    1.369251
