36
doi: 10.1021/jp013141b
O    -2.867666    -1.821372    -0.772018
H    -1.982241    -2.110818    -0.955241
H    -2.999116    -1.037472    -1.292291
O     0.043817    -1.866490    -0.767104
H     0.048987    -1.609614     0.152031
H     0.923713    -2.171052    -0.955827
O     2.930036    -1.852845    -0.941014
H     2.970082    -0.973048    -1.322711
H     3.610150    -2.363474    -1.348915
O    -2.935599     0.927315    -1.851481
H    -2.976890     1.307539    -0.971120
H    -3.617549     1.333190    -2.361278
O    -0.049937     0.768624    -1.864595
H    -0.051102    -0.150622    -1.608116
H    -0.930018     0.953578    -2.170817
O     2.861689     0.784646    -1.824610
H     1.975329     0.963600    -2.113946
H     2.990362     1.304807    -1.040165
O    -2.870860     1.809723     0.786711
H    -2.994629     1.024733     1.307312
H    -1.986549     2.104959     0.965905
O     0.041043     1.866434     0.769987
H     0.041900     1.609528    -0.149127
H     0.919901     2.177253     0.953121
O     2.927814     1.864104     0.922952
H     2.972441     0.984434     1.304398
H     3.610126     2.376036     1.325540
O    -2.921378    -0.938585     1.865604
H    -2.966858    -1.319314     0.985644
H    -3.599494    -1.345653     2.379560
O    -0.035371    -0.767829     1.868273
H    -0.040157     0.151604     1.612372
H    -0.914375    -0.955770     2.175766
O     2.876537    -0.774086     1.807503
H     3.001442    -1.293952     1.022253
H     1.993489    -0.957585     2.104019
