12

O   -1.647887  -0.576136  -0.741123
H   -0.701617  -0.639005  -1.109727
H   -2.034505   0.162893  -1.252800
O   -0.882715   0.521451   1.551480
H   -1.196613   1.446576   1.503566
H   -1.257097   0.106761   0.702144
O    1.605041   0.700100   0.645924
H    2.129610   0.062261   1.170281
H    0.682625   0.641213   1.069940
O    0.887557  -0.671956  -1.505431
H    1.250814  -0.142425  -0.715994
H    1.157877  -1.589067  -1.298696
