18

C  -1.955700000   2.515080000   1.698463000
H  -2.923830000   2.883163000   2.049269000
H  -1.154850000   3.171830000   2.050990000
H  -1.790380000   1.506115000   2.087896000
C  -1.948230000   2.482156000   0.253672000
N  -1.937550000   2.462523000  -0.913150000
C   5.300864000  -2.920090000   1.401103000
H   5.986071000  -2.139770000   1.737487000
H   5.636642000  -3.888750000   1.778233000
H   4.307359000  -2.697240000   1.799307000
C   5.234791000  -2.933140000  -0.043290000
N   5.170868000  -2.941760000  -1.207750000
C   1.912641000  -2.468050000  -1.750510000
H   2.876947000  -2.793500000  -2.151200000
H   1.688016000  -1.463720000  -2.122170000
H   1.123460000  -3.154780000  -2.069590000
C   1.977850000  -2.444240000  -0.306900000
N   2.036566000  -2.426130000   0.858249000
