18

O  -1.776108874  -2.741384797  -1.019308298
H  -2.520094035  -2.452295987  -0.420778302
C  -2.174025166  -3.952700964  -1.647004581
H  -1.359803895  -4.272673416  -2.304149236
H  -3.075973971  -3.808692420  -2.256751112
H  -2.370225393  -4.752784761  -0.918966137
O  -1.358578914   1.232360421   1.189721000
H  -1.058250183   1.216459361   0.238591307
C  -0.389763452   1.957872567   1.943072362
H  -0.747220771   2.012806578   2.975200343
H  -0.260410585   2.982763209   1.565366540
H   0.585220638   1.453754179   1.934070793
O   1.390610024   3.194080770  -1.536658882
H   2.162932299   2.881562730  -0.993525056
C   1.202977189   4.580367182  -1.302880219
H   0.374773115   4.915764831  -1.934164643
H   2.098649340   5.157710875  -1.570472348
H   0.950320401   4.800436015  -0.254328827
