24
doi: 10.1002/qua.26222
C     -1.726329     -2.249270     -0.815090
H     -1.685321     -2.157115      0.274213
H     -0.924210     -2.916510     -1.138616
H     -2.696187     -2.653706     -1.116146
C     -1.531909     -0.928596     -1.406598
N     -1.392986      0.125300     -1.876846
C      1.726328      0.815094     -2.249269
H      0.924208      1.138617     -2.916509
H      1.685324     -0.274210     -2.157113
H      2.696185      1.116152     -2.653705
C      1.531907      1.406602     -0.928596
N      1.392981      1.876850      0.125300
C     -1.726335      2.249265      0.815093
H     -1.685329      2.157109     -0.274211
H     -0.924218      2.916508      1.138618
H     -2.696194      2.653697      1.116150
C     -1.531910      0.928592      1.406601
N     -1.392982     -0.125303      1.876849
C      1.726336     -0.815089      2.249265
H      2.696196     -1.116143      2.653698
H      0.924220     -1.138617      2.916508
H      1.685326      0.274214      2.157111
C      1.531913     -1.406598      0.928593
N      1.392986     -1.876846     -0.125303
