30
doi: 10.1002/qua.26222
C    -0.148429     1.311373     2.010077
H    -0.255224     1.662072     3.039812
H    -1.132954     1.044156     1.615212
H     0.282896     2.111538     1.400030
C     0.732935     0.147876     1.966893
N     1.443762    -0.771131     1.938776
C    -4.441076    -0.597607     0.250401
H    -4.970049    -1.150483    -0.530027
H    -4.521848     0.475135     0.050919
H    -4.892839    -0.826676     1.218851
C    -3.029043    -0.970824     0.255559
N    -1.902249    -1.255174     0.258108
C     0.631958    -3.252001    -0.211661
H     0.588146    -2.904163     0.823574
H     1.310765    -4.105454    -0.287815
H    -0.371662    -3.547256    -0.525523
C     1.110008    -2.160034    -1.054744
N     1.503775    -1.299384    -1.729480
C     3.991203     0.180649    -0.208971
H     3.983915    -0.232453    -1.220277
H     3.627085    -0.584177     0.483413
H     5.005884     0.478355     0.067677
C     3.098857     1.334342    -0.146989
N     2.395661     2.257584    -0.085695
C    -0.509912     1.432388    -1.583956
H     0.213674     2.249471    -1.523726
H    -0.584174     1.083928    -2.617179
H    -0.142917     0.600525    -0.973472
C    -1.814895     1.866664    -1.095882
N    -2.850997     2.195036    -0.682541
	