24

O      1.455059   -0.880818    0.851331
H      0.505216   -1.152524    0.844885
C      2.220368   -1.942177    0.297700
H      3.259249   -1.618771    0.264909
H      1.896930   -2.188337   -0.717112
H      2.154463   -2.840562    0.915723
O      1.146008    1.442436   -0.473102
H      1.385618    0.614295    0.009430
C      1.474897    2.547001    0.357836
H      1.166265    3.453621   -0.159587
H      2.551009    2.598267    0.538796
H      0.957941    2.498319    1.319832
O     -1.181073   -1.365091    0.599473
H     -1.385922   -0.613610   -0.008292
C     -2.051394   -1.275769    1.718961
H     -1.789879   -2.078488    2.406125
H     -3.094470   -1.399885    1.418993
H     -1.945822   -0.319965    2.238905
O     -1.419962    0.803447   -0.977713
H     -0.504881    1.151807   -0.846037
C     -1.643879    0.670953   -2.374493
H     -2.635645    0.243649   -2.511438
H     -0.909075    0.009993   -2.841658
H     -1.611022    1.642209   -2.873466