18

C  -0.869520000  -3.929380000   1.700199000
H  -0.057420000  -3.268850000   2.015352000
H  -0.697530000  -4.930670000   2.101524000
H  -1.821490000  -3.546590000   2.077146000
C  -0.916080000  -3.969960000   0.256749000
N  -0.955390000  -3.995980000  -0.909290000
C  -1.955700000   2.515080000   1.698463000
H  -2.923830000   2.883163000   2.049269000
H  -1.154850000   3.171830000   2.050990000
H  -1.790380000   1.506115000   2.087896000
C  -1.948230000   2.482156000   0.253672000
N  -1.937550000   2.462523000  -0.913150000
C   4.214163000   3.378139000   1.593627000
H   3.242643000   3.657109000   2.012358000
H   4.969258000   4.086643000   1.941290000
H   4.482966000   2.372549000   1.931698000
C   4.130759000   3.388436000   0.150192000
N   4.050180000   3.381449000  -1.013420000
