12

O   -0.199050   0.711236  -1.840163
H    0.206244  -0.132999  -1.502754
H   -1.072092   0.434878  -2.160883
O   -0.672001   1.573688   0.669279
H   -0.526608   1.329953  -0.283268
H    0.052843   2.188340   0.861395
O    0.838456  -1.484920  -0.673793
H    1.797433  -1.347180  -0.633139
H    0.537390  -1.308383   0.257353
O    0.051691  -0.788408   1.808654
H   -0.256343   0.099932   1.484041
H   -0.774520  -1.267731   1.980460
