18

C  -5.181310000   2.853865000  -1.626100000
H  -5.488260000   3.811434000  -2.053310000
H  -5.857590000   2.068112000  -1.968630000
H  -4.170750000   2.611402000  -1.966640000
C  -5.187260000   2.919160000  -0.181450000
N  -5.181700000   2.970641000   0.983640000
C  -1.509690000  -0.693960000  -1.610140000
H  -1.327010000  -1.692700000  -2.017370000
H  -0.742170000  -0.000650000  -1.964400000
H  -2.491920000  -0.334310000  -1.929350000
C  -1.473570000  -0.748120000  -0.167200000
N  -1.447490000  -0.793720000   0.998938000
C  -1.955700000   2.515080000   1.698463000
H  -2.923830000   2.883163000   2.049269000
H  -1.154850000   3.171830000   2.050990000
H  -1.790380000   1.506115000   2.087896000
C  -1.948230000   2.482156000   0.253672000
N  -1.937550000   2.462523000  -0.913150000
