30
doi: 10.1021/ct6002912
O    -0.54558465       0.6450791857     0.9122934897
H    -0.5038940523    -0.2759790594     0.5305299552
C    -0.1384350922     0.5678453849     2.284331612
H    -0.1321666569     1.5851633703     2.6840482207
H     0.8655400188     0.1367446566     2.3553975044
H    -0.8397998818    -0.0402710286     2.8699956807
O     1.600841706      1.744492925     -0.4207260889
H     0.7497839517     1.5033820706     0.0160613134
C     1.3390356135     2.0529003779    -1.7818213405
H     2.2954371644     2.296026309     -2.253506463
H     0.6753164724     2.9236556174    -1.8809725036
H     0.8894854475     1.2093542367    -2.3274567127
O    -2.9690412072     0.2537401901    -0.464115667
H    -2.2987487161     0.6736891532     0.116132054
C    -4.1978673961     0.178024135      0.2485311758
H    -4.9214798506    -0.3171383071    -0.4044414536
H    -4.584386888      1.1762827492     0.4970821251
H    -4.1097716067    -0.4061673446     1.1762792885
O    -1.0218629686    -1.6772643781    -0.3008152727
H    -1.8707107087    -1.2715845218    -0.5840729061
C    -0.2353462284    -2.0088730812    -1.4459488601
H     0.799840314     -2.0869148684    -1.1072404527
H    -0.2957901873    -1.2327290701    -2.2221551046
H    -0.5570179683    -2.964652632     -1.881336285
O     2.4038924381    -0.7875322595     0.3853929988
H     2.2830956836     0.1140604749     0.0127578776
C     3.7851530727    -0.9955688026     0.607561297
H     3.9019037576    -1.9837592697     1.0640133146
H     4.2205884031    -0.2506989571     1.2923527611
H     4.3715729398    -0.9825569679    -0.3256271982