18
doi: 10.1021/jp2069489
O   0.779349480  -1.245089435  -1.332072868
H   1.631449480  -0.884489435  -0.991072868
H   1.019049480  -1.859789435  -2.035972868
O  -0.831350520   1.168010565  -1.169772868
H  -0.382550520   0.372510565  -1.509272868
H  -1.684550520   0.821910565  -0.834772868
O   0.664149480   1.379010565   1.040727132
H   0.080349480   1.447910565   0.235127132
H   0.598349480   2.232810565   1.485327132
O  -0.593150520  -1.279989435   1.246327132
H  -0.149450520  -1.504589435   0.408127132
H  -0.159050520  -0.445589435   1.498327132
O   2.815449480   0.072310565  -0.083972868
H   2.196349480   0.644310565   0.421527132
H   3.367449480  -0.351489435   0.585027132
O  -2.877150520  -0.046089435   0.292627132
H  -2.199650520  -0.625989435   0.708427132
H  -3.639850520  -0.612089435   0.126627132
