9

O     -0.547252   -1.403108   -0.546677
H     -0.705862   -0.900689    0.277759
H     -0.107932   -2.202248   -0.235116
O     -0.397704    0.474267    1.475929
H     -1.072584    1.160512    1.509990
H      0.250680    0.822416    0.832664
O      1.113703    0.789530   -0.824028
H      0.797832    1.349806   -1.541258
H      0.651266   -0.057779   -0.981184
