48

O    2.977341   0.489693  -3.205878
H    3.528710  -0.055441  -2.529114
H    3.629450   0.954601  -3.766431
O   -2.273188   0.162113  -0.364300
H   -1.888217  -0.478696   0.321953
H   -3.107813   0.495344   0.091239
O   -0.445418  -0.522865  -2.178003
H   -1.313523  -0.280216  -1.749617
H    0.164157   0.251138  -1.929342
O    1.355796  -1.528856  -3.976995
H    0.533506  -1.225025  -3.507289
H    1.966421  -0.740173  -3.864601
O    2.454356  -2.984926  -2.104644
H    2.025701  -2.503557  -2.906112
H    2.687614  -3.878778  -2.423986
O   -4.032152   1.105904   1.353734
H   -4.963187   1.382413   1.242553
H   -3.517873   1.952186   1.629813
O    0.436064   0.684206   2.183569
H   -0.071243   0.955736   3.009811
H    0.064816   1.318632   1.485165
O   -3.041351  -0.562957   3.242450
H   -2.418265  -1.083965   2.668705
H   -3.555075  -0.016559   2.575793
O   -1.431523   1.378627   3.922645
H   -2.074529   0.588891   3.778455
H   -1.400133   1.530848   4.887836
O    1.262323   1.356098  -1.391725
H    1.919291   1.282775  -2.151295
H    1.698194   0.792697  -0.668204
O   -2.485083   3.074032   2.103536
H   -1.784023   3.001856   1.402701
H   -2.080531   2.571646   2.872961
O   -1.107105  -1.363190   1.484579
H   -0.471806  -0.635935   1.799773
H   -0.528391  -1.948480   0.920894
O   -0.666249   2.181643   0.267507
H    0.048303   2.177409  -0.428142
H   -1.306953   1.455405  -0.039522
O    4.135384  -0.992415  -1.396222
H    3.656733  -0.690059  -0.579304
H    3.653220  -1.840691  -1.629643
O    2.247959  -0.281400   0.458334
H    1.837374   0.063949   1.297571
H    1.644271  -1.058916   0.205554
O    0.610160  -2.189593  -0.389214
H    1.267647  -2.727147  -0.930797
H    0.162207  -1.619543  -1.100028
