60

O    1.748114  -2.332155   2.454696
H    1.353154  -2.700622   1.634508
H    1.007584  -1.929562   2.960836
O    2.694181   0.506458  -0.647431
H    2.665373   1.498196  -0.646703
H    3.081047   0.207668   0.212893
O    1.441636  -2.991264  -2.570180
H    1.715590  -2.034747  -2.777347
H    2.063600  -3.558625  -3.043940
O    0.887308   2.677552   1.529772
H    1.183097   2.190884   2.344401
H   -0.047727   2.942781   1.654819
O    1.771996   1.229043   3.595010
H    2.409162   0.730063   3.041799
H    1.114879   0.549587   3.848416
O   -3.312915   0.676737  -1.557957
H   -3.946448   0.576001  -2.282315
H   -2.421853   0.449734  -1.959847
O    1.945824  -0.498778  -3.025507
H    2.349194  -0.121984  -2.206516
H    1.043830  -0.127868  -3.049110
O   -1.399170   0.390783   1.851764
H   -1.624355   1.356983   1.852480
H   -0.702755   0.272882   1.148231
O   -3.149853  -1.171610   0.480232
H   -2.587203  -0.626441   1.082940
H   -3.354971  -0.553035  -0.255739
O   -1.790055   3.025577   1.590518
H   -2.348625   3.597858   2.131667
H   -2.104900   3.148356   0.617594
O    2.068952   3.049441  -0.667738
H    1.620158   2.989140   0.247521
H    2.572494   3.873237  -0.690014
O    0.246567  -0.308868  -0.065183
H    0.423139  -1.285453   0.019216
H    1.144416   0.098584  -0.212984
O    0.648041  -2.946666   0.022751
H   -0.301728  -3.212060  -0.069090
H    1.057379  -3.099163  -0.863055
O   -1.242235  -2.538463  -2.950744
H   -1.602649  -2.891643  -2.107503
H   -0.319043  -2.870249  -2.974334
O   -0.896016   0.011479  -2.430914
H   -1.051904  -0.938399  -2.730271
H   -0.492841  -0.093002  -1.523555
O    3.267007  -0.341735   1.827181
H    4.148197  -0.552925   2.165892
H    2.694938  -1.154226   2.058822
O   -0.277892   2.822669  -2.222882
H   -0.368639   1.897253  -2.510127
H    0.578405   2.891513  -1.748211
O   -0.117630  -0.821390   3.767222
H   -0.699084  -1.066221   4.498606
H   -0.690405  -0.344546   3.094311
O   -2.517232   3.253430  -0.845066
H   -1.676692   3.221881  -1.376511
H   -2.965648   2.418197  -1.092906
O   -1.972124  -3.259773  -0.382278
H   -2.446322  -2.426666  -0.018926
H   -2.530621  -4.009789  -0.138146
