18
doi: 10.1021/jp2069489
O          0.00000        0.00000        0.00000
H          0.99710        0.00000        0.00000
H         -0.24802        0.00000       -0.93279
O          0.65718       -0.31907        3.71416
H          0.32745        0.52493        3.35043
H          0.12008       -0.98184        3.23773
O          2.66731       -0.01739        0.15307
H          3.10808        0.83601        0.05400
H          2.89932       -0.30389        1.07403
O          3.14855       -0.65715        2.72175
H          3.47669       -1.51912        3.00422
H          2.26675       -0.55520        3.16526
O         -0.24614        1.86994        2.10595
H         -1.07264        2.36274        2.17451
H         -0.32395        1.34925        1.28258
O         -0.65445       -2.02302        1.86721
H         -0.53959       -1.41295        1.11086
H         -1.57731       -2.30182        1.83192
