18
doi: 10.1021/jp2069489
O  -0.811455384   1.781064622   0.281737248
H   0.070144616   1.745064622  -0.182762752
H  -1.079855384   2.706964622   0.233137248
O  -0.182855384  -1.951135378   0.352537248
H  -0.101755384  -1.429735378   1.174037248
H  -0.990455384  -1.582835378  -0.055862752
O   1.546844616   1.531264622  -0.948962752
H   2.327544616   1.766464622  -0.431662752
H   1.667444616   0.566064622  -1.143462752
O   1.810544616  -1.126235378  -1.276062752
H   1.715444616  -1.570935378  -2.126762752
H   1.101544616  -1.512035378  -0.698862752
O  -0.050055384   0.056464622   2.388637248
H  -0.548455384   0.107664622   3.213037248
H  -0.403855384   0.774864622   1.828337248
O  -2.230755384  -0.395235378  -0.839162752
H  -1.885755384   0.453964622  -0.496662752
H  -3.177955384  -0.377535378  -0.657262752
