15
doi: 10.1021/jp2069489
O   1.480055497  -1.699467762  -0.557907291
H   0.512555497  -1.868967762  -0.546707291
H   1.683855497  -1.544867762  -1.489007291
O  -1.296044503  -1.919267762  -0.364807291
H  -1.514844503  -1.060567762   0.052792709
H  -1.606844503  -2.582267762   0.264492709
O  -1.408844503   0.611432238   0.875292709
H  -1.888744503   0.840432238   1.680792709
H  -0.446444503   0.576132238   1.128992709
O   1.261555497   0.624032238   1.004492709
H   1.245955497   1.310332238   0.313392709
H   1.502855497  -0.191767762   0.514492709
O   0.045355497   2.339432238  -0.990207291
H  -0.069144503   3.286632238  -0.841807291
H  -0.722144503   1.930832238  -0.551407291
