36
doi: 10.1021/ct6002912
O    -0.5676703643    -0.963302458     -1.0411619222
H     0.2940903137    -1.0926294235    -0.5844146627
C    -0.3137520111    -0.8933811464    -2.4588987563
H    -1.2166481709    -0.4908010294    -2.9243445942
H    -0.1291747653    -1.8972019184    -2.8572959571
H     0.5349023201    -0.2340896334    -2.6658591172
O    -1.4909961155    -3.6516949662    -1.1016211261
H    -1.3061676891    -2.7105554488    -0.9174024338
C    -2.8913363786    -3.8071533755    -1.207449164
H    -3.0878522113    -4.8596216706    -1.4358306891
H    -3.3315165719    -3.1997056377    -2.0158955635
H    -3.4214324821    -3.5609830529    -0.2724150898
O    -0.5379448688     1.2058005363     0.6567239096
H    -0.8344051063     0.5680077281    -0.0343497827
C    -0.3122234855     2.4934177433     0.0548274377
H    -0.0814130349     3.175726748      0.8751557402
H    -1.2169782933     2.846878501     -0.4544235106
H     0.5229943728     2.4530509182    -0.652817939
O     1.6374475745    -0.4169315841     0.5434291725
H     0.9834437234     0.2613548717     0.8452130233
C     2.2330030798    -1.0597560465     1.6731843862
H     2.906856064     -1.8294345376     1.2902689144
H     1.4748457334    -1.5356962141     2.3067681685
H     2.8101999797    -0.3486783695     2.276886483
O    -1.1652489205     2.0899767745     3.2543056422
H    -1.088677421      1.5958250412     2.4167266585
C    -2.5343954374     2.3656147172     3.4698511176
H    -2.6099581919     2.9483564091     4.3934395344
H    -3.1399218546     1.452949029      3.5972736393
H    -2.9856691724     2.960626375      2.6584259894
O     2.3178083248     1.1254684241    -1.7089397715
H     2.3300343435     0.5574586798    -0.9128324293
C     3.6532943513     1.4376835371    -2.066403685
H     3.6126828164     2.0765639686    -2.9533606629
H     4.2416566493     0.5416994935    -2.3179011337
H     4.1834028963     1.9878127854    -1.2735698387