18

O  -3.821405976  -2.118091637   0.596795346
H  -4.342989117  -1.344303030   0.251966383
C  -3.443883586  -1.809641231   1.934889393
H  -2.831494349  -2.637429600   2.305201764
H  -4.325601146  -1.719364371   2.585074667
H  -2.858527126  -0.882644791   1.996110694
O   4.310535586  -1.588322800   0.656128299
H   3.804372199  -1.630404735  -0.196849819
C   4.312298137  -2.894980854   1.222112691
H   4.713177833  -2.819907076   2.237066773
H   4.957796734  -3.574699304   0.648211180
H   3.302735989  -3.324433205   1.269756773
O  -5.201143618   0.064582726  -0.172223772
H  -4.686891530   0.869258890   0.107806143
C  -6.513192168   0.171391798   0.359883449
H  -7.049381312  -0.749234190   0.111361174
H  -7.057741163   1.017801101  -0.081819420
H  -6.514770575   0.292264928   1.453058834
