15
doi: 10.1021/jp2069489
O   1.347645749  -1.944003820  -0.062507012
H   0.397445749  -2.040603820  -0.284707012
H   1.551145749  -2.713303820   0.483192988
O  -1.452154251  -1.885403820  -0.455707012
H  -1.604954251  -0.944403820  -0.230307012
H  -2.020454251  -2.371103820   0.154592988
O  -1.450254251   0.795796180   0.441792988
H  -2.010954251   1.157296180   1.139292988
H  -0.547154251   0.684196180   0.848692988
O   1.136245749   0.604296180   1.069692988
H   1.329245749   1.235996180   0.353092988
H   1.379745749  -0.273303820   0.704292988
O   0.509545749   2.420196180  -1.085207012
H   0.441545749   3.356696180  -0.859507012
H  -0.360654251   2.053296180  -0.849207012
