18

O   0.666045193  -2.600503172   0.138317521
H  -0.227115049  -2.712051982  -0.281868004
C   0.490021232  -1.851247678   1.341189459
H   1.466500502  -1.466176022   1.645844415
H   0.097564527  -2.488364683   2.146902740
H  -0.187588112  -1.000787499   1.200739571
O   3.570084754   2.361662577  -0.202416728
H   3.393280933   1.755669977   0.560634073
C   4.368082883   1.644741793  -1.143112807
H   4.552851717   2.311801738  -1.989632421
H   3.862427494   0.740851663  -1.508095690
H   5.333949674   1.357289092  -0.706288100
O  -5.201143618   0.064582726  -0.172223772
H  -4.686891530   0.869258890   0.107806143
C  -6.513192168   0.171391798   0.359883449
H  -7.049381312  -0.749234190   0.111361174
H  -7.057741163   1.017801101  -0.081819420
H  -6.514770575   0.292264928   1.453058834
