24

O    2.051532   1.097154   0.526730
H    1.482804   1.519451  -0.173114
H    1.423730   1.043711   1.293118
O   -0.064418   0.597699   2.244940
H   -0.120509  -0.396767   2.020135
H   -0.161931   0.670983   3.211493
O   -0.131955  -1.814448   1.286191
H    0.725702  -1.704082   0.638498
H   -0.004630  -2.643515   1.781636
O   -1.774149   1.404553   0.274919
H   -2.035090   0.461960  -0.020397
H   -1.266315   1.236579   1.115430
O    1.774148  -1.404554  -0.274919
H    1.266315  -1.236580  -1.115431
H    2.035090  -0.461960   0.020397
O    0.131954   1.814447  -1.286190
H    0.004631   2.643515  -1.781636
H   -0.725703   1.704082  -0.638499
O    0.064419  -0.597699  -2.244940
H    0.120509   0.396766  -2.020134
H    0.161929  -0.670982  -3.211494
O   -2.051532  -1.097154  -0.526730
H   -1.423729  -1.043712  -1.293118
H   -1.482805  -1.519452   0.173114
