24

O    0.531003   2.246906   0.195966
H   -0.333254   2.024242  -0.265391
H    0.618590   3.211649   0.165244
O   -1.960002  -0.330218   1.229284
H   -1.145136  -0.038547   1.745413
H   -2.672627  -0.432544   1.878421
O   -1.653707   1.290994  -0.946039
H   -1.932186   0.757878  -0.166085
H   -1.223242   0.626681  -1.544867
O    1.793771  -1.400150   0.854589
H    0.986024  -1.853313   0.519384
H    2.020309  -0.787400   0.117454
O   -0.283337  -0.609607  -2.345333
H   -0.445052  -1.301565  -1.662295
H    0.590789  -0.244593  -2.074810
O    1.956604   0.445998  -1.163368
H    1.556060   1.231411  -0.706048
H    2.742253   0.778660  -1.623357
O   -0.632104  -2.192669  -0.140047
H   -1.245356  -1.627671   0.400384
H   -1.022229  -3.080363  -0.132136
O    0.330044   0.416034   2.231183
H    0.928484  -0.269198   1.831917
H    0.449297   1.198159   1.645321
