12

C   1.502241000   0.651296000   1.710523000
H   1.309219000   1.637164000   2.143202000
H   2.493408000   0.297996000   2.009069000
H   0.746597000  -0.059850000   2.055508000
C   1.447974000   0.738517000   0.269805000
N   1.405612000   0.808047000  -0.894380000
C   1.912641000  -2.468050000  -1.750510000
H   2.876947000  -2.793500000  -2.151200000
H   1.688016000  -1.463720000  -2.122170000
H   1.123460000  -3.154780000  -2.069590000
C   1.977850000  -2.444240000  -0.306900000
N   2.036566000  -2.426130000   0.858249000
