18
doi: 10.1021/jp2069489
O  -2.237466189   1.407374575   0.800517938
H  -2.351666189   1.548974575   1.748217938
H  -2.258866189   0.428674575   0.689217938
O  -2.190166189  -1.298825425   0.478517938
H  -1.475066189  -1.682825425  -0.080782062
H  -2.958866189  -1.861025425   0.328917938
O  -0.158266189  -2.356925425  -1.005582062
H   0.738533811  -2.053825425  -0.726482062
H  -0.145666189  -2.296725425  -1.968182062
O  -0.010766189   2.552874575  -0.274382062
H  -0.262366189   2.791174575  -1.174582062
H  -0.821566189   2.143774575   0.112217938
O   2.316833811  -1.490725425  -0.254882062
H   2.674133811  -1.903625425   0.540717938
H   2.340633811  -0.523825425  -0.066582062
O   2.282633811   1.181874575   0.282417938
H   1.465933811   1.685974575   0.057417938
H   3.010333811   1.792374575   0.117517938
