24

O    2.081362   1.195624   0.526618
H    1.521380   1.597059  -0.170232
H    1.472937   1.125202   1.289549
O   -0.036184   0.581440   2.331299
H   -0.118135  -0.386892   2.115448
H   -0.149617   0.660074   3.287149
O   -0.161220  -1.874740   1.344840
H    0.646613  -1.744242   0.720580
H   -0.035035  -2.724001   1.788173
O   -1.747672   1.368368   0.268780
H   -2.042474   0.458647  -0.009714
H   -1.268674   1.215851   1.111016
O    1.747659  -1.368392  -0.268778
H    1.268650  -1.215860  -1.111008
H    2.042474  -0.458671   0.009702
O    0.161203   1.874763  -1.344840
H    0.035040   2.724014  -1.788199
H   -0.646631   1.744265  -0.720590
O    0.036203  -0.581435  -2.331254
H    0.118140   0.386902  -2.115409
H    0.149631  -0.660079  -3.287103
O   -2.081360  -1.195643  -0.526658
H   -1.472915  -1.125197  -1.289570
H   -1.521377  -1.597062   0.170201
