18

C  -1.509690000  -0.693960000  -1.610140000
H  -1.327010000  -1.692700000  -2.017370000
H  -0.742170000  -0.000650000  -1.964400000
H  -2.491920000  -0.334310000  -1.929350000
C  -1.473570000  -0.748120000  -0.167200000
N  -1.447490000  -0.793720000   0.998938000
C   1.912641000  -2.468050000  -1.750510000
H   2.876947000  -2.793500000  -2.151200000
H   1.688016000  -1.463720000  -2.122170000
H   1.123460000  -3.154780000  -2.069590000
C   1.977850000  -2.444240000  -0.306900000
N   2.036566000  -2.426130000   0.858249000
C   4.214163000   3.378139000   1.593627000
H   3.242643000   3.657109000   2.012358000
H   4.969258000   4.086643000   1.941290000
H   4.482966000   2.372549000   1.931698000
C   4.130759000   3.388436000   0.150192000
N   4.050180000   3.381449000  -1.013420000
