18

O  -3.839777402   2.233595098   0.660436763
H  -2.958345897   1.907036203   0.973588449
C  -3.600368059   3.168790682  -0.390480452
H  -4.551709193   3.344148967  -0.901254863
H  -2.868237594   2.789240199  -1.113617525
H  -3.243594915   4.128998607   0.009549480
O   1.390610024   3.194080770  -1.536658882
H   2.162932299   2.881562730  -0.993525056
C   1.202977189   4.580367182  -1.302880219
H   0.374773115   4.915764831  -1.934164643
H   2.098649340   5.157710875  -1.570472348
H   0.950320401   4.800436015  -0.254328827
O   3.252955559   0.588596242   1.858934315
H   3.621209177  -0.251605199   1.476063364
C   4.040824528   0.944288422   2.989639460
H   3.670521436   1.902573549   3.363847391
H   5.103749934   1.055868619   2.734277559
H   3.948540682   0.200279590   3.792908518
