30
doi: 10.1021/ct6002912
O    -0.9882463134    -1.4993141848    -1.2050494734
H    -0.0269375584    -1.5645166034    -0.9577418677
C    -1.0736669391    -1.2385705555    -2.6018112132
H    -2.1315353381    -1.1202999491    -2.8530478952
H    -0.6726671377    -2.0775277719    -3.1862210378
H    -0.5386754418    -0.3229467428    -2.8887459542
O    -1.5967396353     0.4005078886     0.570834567
H    -1.4648156892    -0.2856810794    -0.1443592505
C    -2.9496484454     0.3533829163     1.019741444
H    -3.0554474169     1.0802483081     1.8289103192
H    -3.2114279763    -0.6422561188     1.4002524566
H    -3.647187295      0.6214038201     0.2154775502
O     0.7262565102    -0.1991504231     1.9489306171
H    -0.1858028986     0.0108315395     1.6417650866
C     1.3181321978     1.016802945      2.4200757241
H     2.3933474167     0.841139926      2.5159717086
H     0.9234954207     1.2830278469     3.4104451869
H     1.1410559421     1.8438118632     1.7232616161
O     1.5611197087    -1.3008045505    -0.3663717609
H     1.3684324221    -0.8735896476     0.5116393674
C     2.448857645     -2.3917734448    -0.1547434708
H     2.6156081453    -2.8770369333    -1.120653251
H     2.0364293042    -3.1330414275     0.544115321
H     3.4183099396    -2.0480705225     0.2308026346
O    -0.0774926562     2.6920562713    -0.1933518397
H    -0.7154832496     1.986811589      0.0365180881
C     0.6302355781     2.2648278595    -1.3433670263
H     1.3941511582     3.0192325634    -1.5568526191
H    -0.0193223339     2.186700648     -2.2318157364
H     1.1358314554     1.2973803574    -1.1990313517