36

O    0.555783   0.002361  -1.853259
H   -0.261039   0.096739  -2.394431
H    0.463634   0.720148  -1.173534
O   -2.830278  -1.527679  -0.873606
H   -1.998713  -1.964864  -0.592676
H   -3.067564  -0.940577  -0.123794
O    2.351748  -2.213003   0.720253
H    2.716348  -1.588448   0.013173
H    2.974851  -2.949414   0.775272
O   -2.049100   0.281403  -2.575290
H   -2.400738  -0.454010  -1.974903
H   -2.529277   0.201164  -3.410157
O   -3.075479   0.411367   1.123509
H   -2.222402   0.249569   1.609697
H   -3.769761   0.458936   1.793697
O    1.894978  -0.211760   2.640001
H    2.138879  -1.014595   2.130608
H    2.326096   0.506499   2.132394
O   -0.209353  -1.942148  -0.152911
H    0.628878  -2.347419   0.164550
H    0.092724  -1.293768  -0.842372
O   -0.617534  -0.134611   1.828833
H   -0.502380  -0.853982   1.153163
H    0.239281  -0.150236   2.345785
O    2.791685   1.635420   0.739541
H    3.304455   2.438071   0.900147
H    1.872268   1.927836   0.490766
O    3.127812  -0.466615  -1.056421
H    3.177563   0.342990  -0.503762
H    2.333277  -0.330450  -1.613652
O    0.244381   1.809661   0.157417
H   -0.074401   1.144869   0.821379
H   -0.607124   2.226476  -0.170810
O   -2.172614   2.349773  -0.701753
H   -2.658045   1.821889  -0.034326
H   -2.192705   1.765796  -1.491771
