12

O    1.841681   0.348023   0.252624
H    1.352643   0.084417  -0.571634
H    2.276161  -0.473965   0.530403
O    0.316962  -0.388749  -1.884680
H   -0.513499  -0.424471  -1.337790
H    0.213645   0.421299  -2.407154
O   -0.322080   0.448354   1.850770
H    0.525832   0.431448   1.332051
H   -0.523018   1.394601   1.925487
O   -1.812769  -0.412809  -0.235866
H   -2.017971  -1.338101  -0.029838
H   -1.337587  -0.090048   0.575626
