12

O    1.796407   0.381782   0.275720
H    1.327718   0.100593  -0.581997
H    2.388025  -0.369135   0.468304
O    0.355702  -0.407128  -1.787697
H   -0.527259  -0.439176  -1.284218
H    0.219468   0.309069  -2.435643
O   -0.351462   0.381553   1.801830
H    0.535858   0.392028   1.304031
H   -0.509364   1.324103   1.997535
O   -1.806857  -0.356520  -0.274204
H   -2.093183  -1.263557  -0.058575
H   -1.335056  -0.053612   0.574913
