24
doi: 10.1021/ct6002912
O    -1.3174122509    -0.6029621507    -1.8142327139
H    -0.3929224791    -0.7797463328    -1.5349747382
C    -1.3006779416    -0.1206589227    -3.1514336747
H    -2.3326729569     0.1131380545    -3.4262401938
H    -0.921504091     -0.8792126191    -3.8499090017
H    -0.6948244112     0.79127654      -3.2629933324
O    -1.1653960723     1.0090347703     0.4072063486
H    -1.5327614812     0.5211426985    -0.3665660166
C    -1.4375918557     2.3959867318     0.2536486883
H    -0.9772624113     2.915094285      1.098311417
H    -2.5172243237     2.5978189685     0.2710076568
H    -1.019603327      2.8059728632    -0.6779809948
O     1.022405059     -0.4186791135    -0.3273982882
H     0.4243758123     0.2385355087     0.1075000094
C     2.3092737852     0.1752412961    -0.5123172046
H     2.9224632525    -0.5417757103    -1.0636416239
H     2.7839946375     0.3764865361     0.455063782
H     2.2476924159     1.1061152894    -1.0923433481
O     1.5701651104    -1.3730269886     2.2885039323
H     1.3227512316    -1.3544302498     1.3452017987
C     0.3714933539    -1.2888533524     3.0388620548
H     0.6499108362    -1.1163765539     4.0837023619
H    -0.2199013185    -2.2187144267     2.9967806403
H    -0.2755902072    -0.4605515074     2.711888169