24

O    2.058060   1.146415   0.564795
H    1.473215   1.534133  -0.147809
H    1.405646   1.034526   1.313103
O   -0.035310   0.618318   2.216835
H   -0.107341  -0.371979   2.002888
H   -0.140860   0.690084   3.185867
O   -0.166175  -1.811537   1.248646
H    0.682620  -1.732733   0.655002
H   -0.037390  -2.607309   1.801101
O   -1.824273   1.377725   0.327617
H   -2.028575   0.440047   0.000218
H   -1.261105   1.202414   1.136796
O    1.824462  -1.376068  -0.327440
H    1.261390  -1.201948  -1.136960
H    2.027249  -0.438196   0.000071
O    0.167013   1.810406  -1.249586
H    0.038807   2.607561  -1.800229
H   -0.681228   1.731835  -0.655496
O    0.034448  -0.620056  -2.217192
H    0.107751   0.370191  -2.004270
H    0.141661  -0.692702  -3.185987
O   -2.058830  -1.144534  -0.563642
H   -1.407367  -1.033775  -1.312850
H   -1.473869  -1.532821   0.148524
