48
doi: 10.1021/ct6002912
O     0.8207150875    -2.0963425607     0.7956039710
H     1.7349798435    -1.8056933405     0.5294833347
C     0.9372338628    -3.2654985953     1.5952229176
H    -0.0686025756    -3.5500724335     1.9163968324
H     1.5492009735    -3.0791624218     2.4878248688
H     1.3765688318    -4.1072434275     1.0399164528
O    -0.9879581770    -2.0515955446    -1.2210633816
H    -0.3023928578    -2.1267980240    -0.5077605068
C    -0.5174552352    -1.1117943396    -2.1831915752
H    -1.3232557144    -0.9474527624    -2.9052436800
H     0.3517669910    -1.5067317488    -2.7292221278
H    -0.2417042518    -0.1488394453    -1.7324376598
O     3.2075433563     1.3355744681    -0.2902816734
H     2.2623632828     1.5873763292    -0.4667423846
C     3.6915212060     2.1484651500     0.7694893802
H     4.7124358976     1.8277347682     0.9951024225
H     3.0870058249     2.0507714020     1.6832336317
H     3.7183597902     3.2087709351     0.4816294904
O     3.2998348745    -1.3267288509     0.0884942299
H     3.2872529418    -0.3369243987    -0.0130038572
C     3.7920711775    -1.8804542020    -1.1241048403
H     3.8153814806    -2.9682491892    -1.0095342941
H     4.8121650853    -1.5329054190    -1.3358048288
H     3.1557486925    -1.6343032326    -1.9870763120
O     0.6413803743     2.0599552338    -0.7203657284
H     0.1035103357     2.0167390157     0.1217352910
C     0.4726568698     3.3488807491    -1.2958697466
H     1.1250910045     3.4113405548    -2.1715966579
H     0.7441124424     4.1531534472    -0.5975471030
H    -0.5636427950     3.5093317890    -1.6237637484
O    -0.7985532353     1.9712340069     1.5255029586
H    -1.7249151760     1.7306631555     1.2545743027
C    -0.3318638738     0.9866809610     2.4475546948
H     0.6164246788     1.3463503479     2.8598041650
H    -0.1598231696     0.0127109337     1.9697182350
H    -1.0401595834     0.8611076829     3.2768710298
O    -3.2012127122    -1.3239658333     0.1190520624
H    -2.3838626931    -1.5845504016    -0.3850516018
C    -4.3030301727    -2.0613821788    -0.3833727031
H    -5.1877055454    -1.7734969608     0.1924041068
H    -4.1502315966    -3.1430339126    -0.2647166152
H    -4.4987545593    -1.8547564778    -1.4465793099
O    -3.2674795559     1.3138084313     0.6367417016
H    -3.2865460069     0.3314297434     0.4885784151
C    -3.4982799023     1.9390500014    -0.6167199449
H    -3.5023051726     3.0208523553    -0.4532284264
H    -4.4725456477     1.6519847417    -1.0365495136
H    -2.7172044420     1.7006963150    -1.3549361577