         336
  Built with Packmol                                             
  O            7.370288        6.809981        9.244409
  H            6.539127        6.906040        9.719595
  H            8.038453        6.746313        9.933872
  O            2.835498        2.343956        9.787527
  H            3.061770        2.648143       10.671908
  H            1.979221        2.743078        9.604911
  O            4.679361        0.082048        3.937742
  H            4.230254        0.000532        3.090678
  H            5.615071        0.013010        3.724345
  O            3.803046        1.267231        7.185740
  H            3.513430        2.001329        7.736267
  H            4.208579        0.647788        7.800306
  O            0.410241        7.691664        9.423418
  H            0.000462        7.100115       10.062173
  H            0.852188        8.358357        9.958265
  O            3.478752       10.306071        7.215541
  H            4.384522       10.461490        7.500644
  H            3.041671        9.932987        7.987309
  O            0.577065        9.337422       14.997141
  H            1.472247        9.218111       14.665069
  H            0.075254        9.647799       14.237069
  O            0.746243        5.698678        8.238950
  H            0.001191        5.320285        7.761903
  H            1.111914        6.354814        7.637594
  O           11.197234        8.802201        0.713420
  H           11.839658        8.227967        1.141677
  H           11.061292        9.522351        1.336928
  O            5.600322       13.703072       12.724360
  H            5.414349       13.331031       11.856687
  H            4.736441       13.932410       13.080693
  O           11.979098       11.149664        8.333629
  H           11.801199       10.264192        8.665516
  H           11.862887       11.080044        7.380998
  O            9.240129       11.108679        3.149573
  H            9.494477       11.835222        3.726895
  H            8.984355       10.400401        3.748555
  O            5.828558       11.550013        0.790984
  H            5.329832       11.801092        1.574623
  H            6.750606       11.648926        1.047695
  O           10.604811        6.668354        8.030610
  H            9.904052        6.057174        8.278105
  H           10.148212        7.487898        7.816778
  O           13.618395        4.562504        0.380898
  H           13.371755        3.868434        1.000004
  H           13.875011        5.304469        0.937219
  O            9.206131        2.052023        6.864933
  H            9.721674        2.860508        6.784780
  H            9.745097        1.473463        7.413241
  O            1.991512        2.567579       14.332435
  H            2.887629        2.284654       14.125587
  H            1.985092        3.511226       14.144428
  O            5.252704       11.035664        3.633643
  H            4.430200       11.126809        4.124599
  H            5.134526       10.238906        3.107270
  O            2.701727        1.272784        2.203008
  H            2.808513        0.695658        1.440525
  H            3.390607        1.937138        2.103324
  O            1.616522        7.611290        2.114410
  H            2.029438        7.871784        2.943567
  H            1.762025        6.661801        2.058221
  O            1.437871        3.996846        0.986703
  H            1.750140        3.427019        1.696381
  H            0.546559        4.246340        1.249713
  O            3.079968        5.187419        9.134132
  H            3.559677        4.363615        9.264835
  H            2.916779        5.225925        8.186638
  O            4.827212        8.373753        9.905027
  H            4.785513        9.145360        9.331667
  H            4.067126        7.841073        9.651295
  O           12.936405       10.936873       12.939296
  H           13.492612       11.430818       12.328960
  H           12.382568       10.389116       12.374420
  O           14.698164       10.220450        7.223236
  H           14.380050       10.122213        8.126015
  H           14.124749        9.651639        6.700256
  O            7.235525       10.198800        6.017275
  H            6.786826       10.978154        6.359522
  H            8.077901       10.179687        6.481922
  O            5.761537        8.611294        0.011883
  H            4.806084        8.724020        0.028036
  H            5.941612        7.964375        0.701032
  O            9.510724        2.137913       11.523168
  H            8.990247        2.032347       12.325551
  H           10.094634        2.880003       11.708126
  O            7.715984       11.953761       13.220726
  H            7.333284       12.467582       13.938630
  H            7.210083       12.208593       12.442919
  O            4.180707        6.109543       13.157300
  H            3.662064        5.313943       13.311866
  H            4.217124        6.546158       14.013979
  O           12.890941        2.411536        7.937757
  H           13.108770        3.201127        8.442688
  H           13.073690        1.681517        8.537367
  O           14.997873        1.380354        2.727323
  H           14.468099        1.863659        2.085752
  H           14.609135        0.500452        2.749968
  O            1.190960       14.031659       14.149204
  H            1.465240       14.666110       13.479800
  H            0.350180       13.689640       13.829878
  O           10.997563        3.718888       14.713862
  H           11.217148        2.938284       14.195889
  H           10.291526        4.147433       14.220182
  O            9.213842       10.960560        9.516253
  H            8.336217       11.108348        9.150478
  H            9.545383       11.841489        9.716013
  O            2.852274       12.294810        1.615434
  H            2.009342       12.758760        1.624013
  H            3.468296       12.917373        1.216949
  O            5.871703        0.505270        6.376602
  H            6.278545        0.919582        5.609345
  H            6.583519        0.006639        6.789570
  O            0.609013        7.537573       12.489382
  H            1.387942        8.066553       12.687646
  H            0.000300        7.721143       13.211620
  O            1.547609        0.767709       10.590245
  H            1.416701        0.009961       11.168638
  H            1.466000        0.411101        9.700284
  O            0.828002       11.293988        9.886003
  H            0.297229       11.720052       10.566156
  H            1.175922       10.502972       10.309208
  O            9.535795       14.061901        8.546420
  H            8.870755       13.718471        7.941743
  H           10.372678       13.745227        8.192579
  O            0.641238        1.559464        3.862853
  H            0.550241        2.500845        3.685710
  H            0.426644        1.465937        4.796159
  O            5.459756        1.610871       12.164019
  H            4.789421        2.126110       12.623408
  H            5.533442        0.798222       12.673951
  O            8.908772       -0.011634       12.711127
  H            8.151209        0.007263       13.304085
  H            9.670716        0.108228       13.286395
  O           11.685960        6.706107       13.659249
  H           10.885574        6.237159       13.914842
  H           12.281102        6.596755       14.407384
  O            7.020877        6.158775        4.364275
  H            6.458650        5.759304        3.693320
  H            6.430075        6.724410        4.871097
  O            4.035958        6.770261        0.892455
  H            3.701638        7.482412        1.446467
  H            3.600599        6.897662        0.043874
  O           10.917466       13.702242        0.551609
  H           10.514291       14.026448        1.362903
  H           10.296974       13.047527        0.216651
  O           12.661871        8.148373        9.590561
  H           11.848573        8.113346        9.077553
  H           13.364525        8.135513        8.933316
  O            8.063392        9.536594        0.738214
  H            7.542133        9.884915        0.008269
  H            8.977222        9.692456        0.480378
  O           14.002710       15.000002        0.971292
  H           14.436074       14.736734        1.789059
  H           13.062609       14.971805        1.174451
  O            1.707629        9.976395        2.185028
  H            2.153586        9.783983        1.354391
  H            0.953201       10.519143        1.935787
  O           13.405715       13.432271        4.064875
  H           13.597937       12.577619        4.462968
  H           13.398179       13.262999        3.117696
  O            4.777333       10.729439       12.594790
  H            4.367740       11.597945       12.656349
  H            4.071239       10.111983       12.809354
  O            3.519480       12.857737        7.535920
  H            2.690940       13.064437        7.979377
  H            3.285743       12.786104        6.605278
  O            3.955023       14.385126        4.696844
  H            4.642140       14.022192        5.264300
  H            3.657474       13.638646        4.167609
  O            7.909025        0.191012        9.974864
  H            8.820408        0.002440        9.730571
  H            7.401893        0.014456        9.176426
  O            4.973927        3.968516       14.413655
  H            5.523079        4.590769       14.900576
  H            4.221998        3.804392       14.991169
  O           10.541516       10.488794       11.190151
  H           10.381267       11.109874       11.907395
  H           10.198465        9.650069       11.513746
  O            0.940802        5.432532       14.806408
  H            1.505226        6.192452       14.979049
  H            0.045988        5.757818       14.945528
  O           11.245229        1.407177        5.212749
  H           10.791527        1.990938        4.596928
  H           11.544068        1.985959        5.920961
  O            2.409270        6.165541       10.976468
  H            2.193878        5.582246       11.710791
  H            3.329761        6.406582       11.119481
  O           12.459204       10.228284        4.052991
  H           11.597367       10.032979        4.433714
  H           12.317176       11.018472        3.522623
  O            9.331908        3.040156        8.936225
  H            9.466923        3.954493        8.668614
  H           10.066099        2.849233        9.528146
  O            5.397455        4.449602       11.283804
  H            5.283565        5.179246       10.666952
  H            4.506797        4.118875       11.436140
  O            5.257596       14.635208        2.943651
  H            5.360925       13.823739        2.436997
  H            4.420157       15.003176        2.645063
  O           11.470844        4.170002       10.586945
  H           10.818461        4.796720       10.914785
  H           11.711688        4.502753        9.716814
  O            3.987393       11.105856        9.905187
  H            4.665854       11.495902       10.465019
  H            3.355134       10.722405       10.520874
  O           12.032693        4.014597        6.669056
  H           11.196930        4.476256        6.788338
  H           12.349099        4.303475        5.807490
  O            7.815833        3.826857        1.113361
  H            7.077365        4.338780        1.457538
  H            7.899937        3.084062        1.719199
  O            8.031564       14.947942       10.778637
  H            7.236857       14.527527       11.121493
  H            8.659451       14.227231       10.668221
  O            4.658429        9.072529        5.147059
  H            4.142609        8.574898        5.789049
  H            5.570009        8.814418        5.315163
  O           10.106548        0.439245        3.209897
  H            9.515499        0.004636        2.587295
  H           10.688461        0.973263        2.660297
  O           10.215011        8.892266        5.989508
  H           11.109865        8.601826        6.191350
  H           10.224549        9.840437        6.153030
  O            6.194739        3.783979        5.508137
  H            6.402737        3.678620        4.574598
  H            5.682150        4.597077        5.552656
  O            2.151399        6.745472        4.828358
  H            3.110977        6.775041        4.893111
  H            1.971484        6.031056        4.209409
  O           13.280217        1.756397        4.173828
  H           12.720684        1.228360        3.595936
  H           13.122138        2.665453        3.900907
  O           13.454139       12.915036        6.688876
  H           13.006559       12.935492        7.540411
  H           14.260477       12.415347        6.850087
  O            1.961123       10.949385       13.420591
  H            2.249581       11.863406       13.505535
  H            1.288157       10.969810       12.733163
  O            6.426324        1.613591       14.464961
  H            7.077901        1.862477       13.802118
  H            6.342647        2.390065       15.027051
  O           11.784903       14.996942        6.638710
  H           12.734538       14.985676        6.793389
  H           11.659941       14.453557        5.854507
  O            2.340273       13.480607       11.363016
  H            2.544022       12.543298       11.439161
  H            1.387295       13.512447       11.233879
  O           13.367966       14.474824       11.942340
  H           14.193451       14.550015       11.453690
  H           13.424645       13.622623       12.385511
  O            3.975610        5.070299        2.877384
  H            3.725466        4.217369        2.508878
  H            4.751573        5.334592        2.373510
  O            4.508837       14.894642       10.604393
  H            4.949454       14.665920        9.780135
  H            3.581098       14.987165       10.366489
  O            7.247965        6.078310       12.562144
  H            7.150957        5.773507       11.654651
  H            6.994043        7.006030       12.535374
  O            8.568773        3.373453        4.692486
  H            8.657202        2.420405        4.791165
  H            8.618393        3.525175        3.743604
  O            0.526429        4.373545        5.045641
  H           -0.000098        3.704768        5.494377
  H            0.801528        4.975352        5.744216
  O           11.363577        9.409689       14.057187
  H           11.184006        9.549814       14.992054
  H           12.115601        8.809630       14.041441
  O            9.150461        2.261608       14.503179
  H            9.099371        1.399497       14.927458
  H            8.564087        2.822242       15.020587
  O           12.706337       12.330462        0.873658
  H           12.041690       11.736626        0.511083
  H           13.532056       12.047172        0.468944
  O            1.630534        2.550503        6.487365
  H            1.432682        1.722115        6.935122
  H            1.627917        3.211413        7.186685
  O           14.514580        8.748952       10.893090
  H           14.511003        8.025319       11.527282
  H           14.075587        9.473769       11.348924
  O            4.344291        3.526551       -0.002088
  H            3.420369        3.784654        0.072804
  H            4.823123        4.186242        0.509172
  O            7.751043        3.803245       12.307280
  H            6.901911        3.844421       12.757988
  H            8.366242        4.235107       12.908016
  O            7.571365       10.212343       11.644474
  H            8.078966        9.769548       10.957355
  H            6.751241       10.470574       11.212534
  O            6.151681        2.349451        2.797721
  H            5.307598        2.086795        3.177713
  H            6.525259        1.534290        2.448709
  O            7.271403        8.701300       13.951008
  H            6.671619        9.362388       13.591731
  H            7.001354        8.601539       14.869147
  O            5.698626        1.442540        0.231429
  H            6.138743        2.266575        0.000950
  H            6.415377        0.825213        0.407590
  O           11.949416       14.315101        9.613420
  H           12.471882       14.998092        9.181667
  H           12.506473       13.530925        9.588647
  O            5.097959        5.949183        7.345665
  H            4.758462        6.514905        8.046064
  H            6.030170        6.178029        7.278809
  O            8.430937        6.778554        6.402862
  H            8.316217        5.917633        6.817002
  H            8.155382        7.410014        7.074566
  O            5.393468       12.341758        8.553895
  H            5.757399       13.210501        8.357179
  H            6.095177       11.725910        8.321099
  O           13.130126        6.390940        7.003250
  H           12.734908        7.219710        6.715498
  H           12.732053        6.217053        7.861830
  O            6.564141        2.229250        8.715397
  H            7.347676        2.192631        9.272704
  H            5.833042        2.340603        9.330989
  O            7.195412        4.749994        8.495591
  H            7.441585        4.057356        7.874697
  H            6.440026        4.391973        8.972111
  O            3.409118        3.926268        4.958078
  H            3.142726        4.398222        5.753158
  H            3.643720        3.045203        5.265559
  O            5.430061        7.839681        2.793066
  H            6.171208        8.203387        3.287310
  H            4.805030        7.554755        3.466869
  O           13.665843        4.512369       13.348568
  H           13.454914        4.266335       12.442569
  H           12.812660        4.569562       13.789778
  O           10.664650        6.379969        4.746849
  H            9.921253        6.429411        4.137936
  H           10.285505        6.048831        5.566882
  O            7.685230        9.165767        8.400287
  H            8.434690        8.959832        8.967525
  H            6.912798        9.015210        8.953947
  O            7.475192       13.618891        1.701602
  H            8.368712       13.357447        1.458438
  H            7.551090       13.928238        2.609568
