12
doi: 10.1021/jp2069489
O   1.398737412  -1.347769405  -0.120652797
H   1.655837412  -2.014469405   0.527847203
H   0.437237412  -1.494969405  -0.271652797
O   1.319237412   1.310030595   0.576647203
H   1.995537412   1.800630595   0.094247203
H   1.476237412   0.365530595   0.344947203
O  -1.398662588   1.347930595   0.120047203
H  -0.437162588   1.495130595   0.271447203
H  -1.655262588   2.014130595  -0.529052797
O  -1.319362588  -1.310169405  -0.576052797
H  -1.476262588  -0.365669405  -0.344652797
H  -1.995362588  -1.800669405  -0.092952797
