18

O   0.666045193  -2.600503172   0.138317521
H  -0.227115049  -2.712051982  -0.281868004
C   0.490021232  -1.851247678   1.341189459
H   1.466500502  -1.466176022   1.645844415
H   0.097564527  -2.488364683   2.146902740
H  -0.187588112  -1.000787499   1.200739571
O   2.622209273  -1.703002590  -1.445859723
H   1.828551432  -1.986513781  -0.909754968
C   2.781117675  -2.615822239  -2.525472890
H   3.691063626  -2.339003544  -3.065143454
H   1.934727323  -2.559520367  -3.223226661
H   2.879948338  -3.653846211  -2.177750170
O   1.390610024   3.194080770  -1.536658882
H   2.162932299   2.881562730  -0.993525056
C   1.202977189   4.580367182  -1.302880219
H   0.374773115   4.915764831  -1.934164643
H   2.098649340   5.157710875  -1.570472348
H   0.950320401   4.800436015  -0.254328827
