18

C  -1.509690000  -0.693960000  -1.610140000
H  -1.327010000  -1.692700000  -2.017370000
H  -0.742170000  -0.000650000  -1.964400000
H  -2.491920000  -0.334310000  -1.929350000
C  -1.473570000  -0.748120000  -0.167200000
N  -1.447490000  -0.793720000   0.998938000
C   1.502241000   0.651296000   1.710523000
H   1.309219000   1.637164000   2.143202000
H   2.493408000   0.297996000   2.009069000
H   0.746597000  -0.059850000   2.055508000
C   1.447974000   0.738517000   0.269805000
N   1.405612000   0.808047000  -0.894380000
C   4.602033000   0.321019000  -1.784800000
H   4.827650000  -0.662160000  -2.207910000
H   5.320558000   1.057980000  -2.148500000
H   3.601982000   0.643751000  -2.087520000
C   4.654967000   0.244048000  -0.343060000
N   4.691648000   0.166590000   0.820757000
