30
doi: 10.1021/ct6002912
O    -1.0485311345    -0.9248969644    -1.7666786001
H    -0.1899808463    -1.3152110482    -1.4509700233
C    -0.7315379784     0.1527274646    -2.6353057004
H    -1.6712463717     0.6161319944    -2.9502639674
H    -0.2045294594    -0.1966720853    -3.5341855942
H    -0.1116328498     0.9193502415    -2.1459763693
O    -2.1634159129     0.030131976      0.498317319
H    -1.8018997194    -0.3692139475    -0.3367096123
C    -3.5498344397     0.2792336964     0.3395204222
H    -3.9266570807     0.6815288496     1.2845292402
H    -4.1006463922    -0.6441653035     0.113647188
H    -3.7581441628     1.0115861518    -0.4556662641
O     1.9450110183     0.0331228753     1.1550782258
H     1.1653434782     0.6352550011     1.2884294703
C     2.2491943196    -0.5604341312     2.411410334
H     3.1075348381    -1.2230548841     2.2671026024
H     1.4125510788    -1.153977475      2.8065065476
H     2.5193688389     0.2006793819     3.1556661127
O     1.3375937771    -1.724168014     -0.7978746185
H     1.5567924843    -1.0931954334    -0.0604893453
C     2.47778433      -1.8480866249    -1.6338001641
H     2.2219641913    -2.5330389931    -2.447650208
H     3.3328245825    -2.2692762308    -1.0867345849
H     2.7864536736    -0.8863810634    -2.0698422089
O    -0.2391758424     1.5653869549     1.5790416276
H    -1.0077519334     1.0281999501     1.2528695467
C    -0.2944383526     2.8398619074     0.9566990781
H     0.5885533616     3.4031239966     1.2716936502
H    -1.1887032533     3.3993920554     1.2655258074
H    -0.2890569757     2.7725103463    -0.1416974369