42
doi: 10.1021/ct6002912
O    -0.7143537172     2.2933325312    -1.5914381074
H     0.2223230486     2.1348564184    -1.3039485808
C    -0.9180197099     1.5635948454    -2.7988074260
H    -1.8005168763     1.9782826712    -3.2958808667
H    -1.0970831375     0.4954464022    -2.6085067772
H    -0.0569750757     1.6675223863    -3.4706826163
O    -2.4885281032     1.2728354985     0.1634217851
H    -1.8453927507     1.7405572237    -0.4356789074
C    -2.0215410099     1.3852113505     1.5052834126
H    -2.7908839328     0.9602876380     2.1571812178
H    -1.8796682841     2.4373888417     1.7853816868
H    -1.0821632647     0.8403193943     1.6710925488
O     2.8149907795     0.3418330920     0.8928002344
H     2.0410862455    -0.1115536671     1.3177202574
C     3.6954409395    -0.6611354584     0.4083053657
H     4.5314627028    -0.1594255582    -0.0869840030
H     3.2127960349    -1.3290098033    -0.3205825755
H     4.0971281727    -1.2727057682     1.2284156327
O     1.9056711817     1.9846206233    -1.0516568975
H     2.2178126098     1.3688559115    -0.3381666368
C     2.5145131896     3.2513054909    -0.8425457003
H     2.0620610283     3.9553061966    -1.5466015158
H     3.5963571069     3.2143074095    -1.0329386419
H     2.3535800915     3.6276847031     0.1777454006
O     0.7399889430    -0.9579628578     2.0243392405
H     0.2531338451    -1.5967882641     1.4351747378
C     0.8643742339    -1.5325203683     3.3175890497
H     1.4201809197    -0.8278694066     3.9424669498
H     1.4113601892    -2.4861536016     3.2967869687
H    -0.1183963726    -1.7052705879     3.7763296362
O    -0.5716563369    -2.6790341299     0.4370601862
H    -1.3115312123    -2.1668075489     0.0115568613
C     0.2302783321    -3.2208047097    -0.6040227263
H     1.0686403937    -3.7484759762    -0.1393668883
H     0.6295085851    -2.4442764372    -1.2720874051
H    -0.3359550277    -3.9411311478    -1.2100333523
O    -2.4123383654    -1.2045992968    -0.8416154844
H    -2.4560206100    -0.2874370750    -0.4482762181
C    -3.7406824050    -1.6721559585    -1.0319005606
H    -3.6836760046    -2.6790048873    -1.4556863621
H    -4.2923881522    -1.0311768880    -1.7324764332
H    -4.3031567479    -1.7229034150    -0.0886502594