24
doi: 10.1002/qua.26222
C     2.664895    -0.771250    -1.541041
H     2.555582    -1.850769    -1.412048
H     3.570760    -0.553637    -2.112454
H     1.788380    -0.393659    -2.075732
C     2.729585    -0.125073    -0.233379
N     2.769474     0.392191     0.806952
C    -2.664895    -0.771252    -1.541040
H    -2.555565    -1.850768    -1.412047
H    -1.788391    -0.393648    -2.075738
H    -3.570768    -0.553653    -2.112446
C    -2.729585    -0.125074    -0.233379
N    -2.769475     0.392193     0.806951
C     0.000000    -0.991275     2.289935
H     0.896569    -0.374454     2.406353
H     0.000000    -1.775196     3.051763
H    -0.896569    -0.374455     2.406353
C     0.000000    -1.589416     0.957861
N     0.000001    -2.062320    -0.104099
C     0.000000     2.457775     0.830467
H     0.896604     2.138062     1.370044
H    -0.896602     2.138060     1.370045
H    -0.000001     3.547515     0.744938
C    -0.000000     1.853580    -0.498869
N    -0.000000     1.373438    -1.557285
