18

O   0.666045193  -2.600503172   0.138317521
H  -0.227115049  -2.712051982  -0.281868004
C   0.490021232  -1.851247678   1.341189459
H   1.466500502  -1.466176022   1.645844415
H   0.097564527  -2.488364683   2.146902740
H  -0.187588112  -1.000787499   1.200739571
O   3.570084754   2.361662577  -0.202416728
H   3.393280933   1.755669977   0.560634073
C   4.368082883   1.644741793  -1.143112807
H   4.552851717   2.311801738  -1.989632421
H   3.862427494   0.740851663  -1.508095690
H   5.333949674   1.357289092  -0.706288100
O   3.252955559   0.588596242   1.858934315
H   3.621209177  -0.251605199   1.476063364
C   4.040824528   0.944288422   2.989639460
H   3.670521436   1.902573549   3.363847391
H   5.103749934   1.055868619   2.734277559
H   3.948540682   0.200279590   3.792908518
