57
doi: 10.1021/jp013141b
O     4.657049    1.330877   -1.269127
H     4.532493    1.329598   -0.318532
H     5.452321    1.810163   -1.436571
O     4.421841    1.085636    1.515984
H     4.657247    0.180077    1.681600
H     3.605354    1.234692    1.974308
O     1.506476    1.187582    2.160834
H     1.379128    1.811196    1.452109
H     0.670567    1.130303    2.608091
O    -1.401149    0.792483    2.283973
H    -1.509714    1.347640    1.513993
H    -2.274062    0.693573    2.647176
O    -4.269896    0.314187    2.376097
H    -4.958312    0.484967    2.998134
H    -4.426776    0.894502    1.624237
O     4.730603   -1.815680    1.434119
H     5.370661   -2.415113    1.781267
H     4.792429   -1.850900    0.476596
O     1.863389   -1.556730    1.408613
H     2.744431   -1.835935    1.629824
H     1.799911   -0.635949    1.650224
O    -0.990033   -1.855327    1.333193
H    -0.099646   -2.105202    1.547927
H    -1.096993   -0.965576    1.663948
O    -3.864281   -2.333734    1.172953
H    -2.948071   -2.462469    1.384698
H    -4.115333   -1.527338    1.610238
O     4.680610   -1.638361   -1.332478
H     3.794581   -1.838353   -1.610434
H     4.794558   -0.710060   -1.496743
O     1.777229   -1.556824   -1.432763
H     1.761128   -1.608215   -0.479208
H     0.948376   -1.913972   -1.729597
O    -1.075258   -1.836186   -1.507704
H    -1.088966   -1.847340   -0.552289
H    -1.921834   -2.174018   -1.778400
O    -3.920436   -2.259205   -1.597258
H    -4.513283   -2.906348   -1.942866
H    -3.996719   -2.292257   -0.640384
O     1.883876    1.198055   -2.136475
H     2.816333    1.362607   -2.207931
H     1.816207    0.276002   -1.895160
O    -1.150716    0.871602   -2.348276
H    -0.324018    1.133737   -2.728058
H    -1.060961   -0.045157   -2.095199
O    -4.154256    0.622866   -2.252178
H    -3.289210    0.839470   -2.571540
H    -4.158992   -0.318022   -2.124003
O     1.214544    2.969808   -0.083300
H     1.802950    3.704176   -0.151555
H     1.411157    2.381347   -0.814426
O    -1.622758    2.446813   -0.017219
H    -0.831112    2.968672    0.009245
H    -1.546384    1.918378   -0.808569
O    -4.504913    2.016733    0.232716
H    -3.687008    2.495963    0.207533
H    -4.557820    1.578398   -0.613302
