60

O    1.751188  -2.237476   2.382720
H    1.251453  -2.647571   1.608713
H    2.071333  -2.996846   2.908855
O    2.560187   0.330925  -0.545280
H    2.388158   1.330922  -0.554564
H    3.060602   0.092930   0.324143
O    1.154056  -3.132361  -2.274090
H    1.552931  -2.225394  -2.547109
H    1.715696  -3.814145  -2.692163
O    1.000094   3.495904   1.634527
H    1.366835   2.749705   2.202286
H    0.009870   3.317361   1.605085
O    2.050548   1.477464   3.063114
H    2.457460   1.811031   3.888045
H    1.348318   0.780088   3.384926
O   -3.233982   0.649246  -1.499116
H   -3.885074   0.575587  -2.225594
H   -2.345946   0.387846  -1.915206
O    1.903392  -0.723168  -2.914800
H    2.279316  -0.353903  -2.058594
H    0.985392  -0.348173  -2.929422
O   -1.462708   0.279033   1.891323
H   -1.574224   1.282186   1.784745
H   -0.797915   0.045361   1.161661
O   -3.410270  -1.036114   0.604862
H   -2.742540  -0.559692   1.192774
H   -3.464325  -0.419951  -0.184109
O   -1.596301   2.871221   1.422698
H   -2.210028   3.386199   1.983506
H   -1.931916   3.018948   0.444065
O    1.771054   2.823497  -0.700669
H    1.464913   3.135533   0.251644
H    2.441951   3.476270  -0.984658
O    0.166005  -0.467373  -0.008312
H    0.271013  -1.470866   0.107501
H    1.127936  -0.124659  -0.138607
O    0.413408  -3.081484   0.258293
H   -0.585243  -3.198084   0.129947
H    0.804283  -3.210464  -0.665194
O   -1.400286  -2.535799  -2.909195
H   -1.789541  -2.768282  -2.011009
H   -0.471159  -2.900956  -2.824324
O   -0.833957  -0.066241  -2.390257
H   -1.085083  -1.026723  -2.690578
H   -0.456992  -0.209711  -1.452463
O    3.571789  -0.309237   1.749808
H    2.999626  -1.104950   1.954351
H    3.105636   0.411848   2.275744
O   -0.256844   2.669026  -2.463851
H   -0.399737   1.699046  -2.601698
H    0.514639   2.723911  -1.820613
O    0.358680  -0.337425   3.746069
H   -0.410795  -0.125056   3.129907
H    0.807073  -1.114082   3.300198
O   -2.406056   3.182288  -0.984650
H   -1.575244   3.078615  -1.561499
H   -2.865997   2.309200  -1.150878
O   -2.140739  -3.044370  -0.371979
H   -2.710398  -3.829612  -0.249900
H   -2.666867  -2.248218   0.049170
