         300
  Built with Packmol                                             
  O            1.719920       13.499081        8.648179
  H            2.639183       13.704817        8.447507
  C            1.633581       13.227086       10.039213
  H            0.591523       12.997106       10.249102
  H            1.926774       14.088649       10.645578
  H            2.243006       12.366341       10.328436
  O            6.895424        5.108166        6.915901
  H            6.044978        5.441774        7.221005
  C            7.094233        5.582950        5.592471
  H            8.056757        5.198291        5.263207
  H            7.124371        6.675204        5.547706
  H            6.323751        5.221267        4.905831
  O           13.766774        7.578565       13.253464
  H           12.879703        7.542218       13.626860
  C           13.975151        6.379549       12.521789
  H           14.979115        6.436163       12.107444
  H           13.265633        6.272961       11.696468
  H           13.913242        5.492992       13.159061
  O           10.098395        4.622800        8.552702
  H           10.102541        3.889152        7.928696
  C            9.920755        4.080698        9.853080
  H            9.918327        4.920179       10.544525
  H           10.734467        3.405259       10.131622
  H            8.969976        3.549249        9.950608
  O            4.299411        1.800242       10.967728
  H            4.520392        1.351497       10.144662
  C            3.593293        0.877959       11.784552
  H            3.351578        1.399009       12.708084
  H            4.197391        0.000136       12.030361
  H            2.660443        0.547220       11.319437
  O            5.459909        5.293582        2.874090
  H            4.552690        5.016573        3.041004
  C            5.493460        6.712180        2.927612
  H            6.522528        7.008342        2.737514
  H            5.199271        7.093644        3.909380
  H            4.855725        7.167588        2.164835
  O            2.052272       12.703244       13.176385
  H            2.188556       13.593315       12.834565
  C            2.027958       12.785644       14.593788
  H            1.873616       11.774550       14.963512
  H            1.209770       13.414913       14.955065
  H            2.970794       13.162507       14.999946
  O           15.017472        9.081989       10.134350
  H           15.004371       10.044698       10.160058
  C           13.675452        8.636694       10.003563
  H           13.707520        7.549936        9.976068
  H           13.212370        8.992768        9.079065
  H           13.056084        8.943323       10.851085
  O           11.950564        5.564800       14.145172
  H           12.203829        5.235039       15.013938
  C           10.858366        6.454446       14.324180
  H           10.584964        6.817250       13.336023
  H           11.125288        7.313157       14.946514
  H            9.989383        5.955680       14.762394
  O           13.375146        5.056907        1.218432
  H           13.216436        4.913831        0.279294
  C           14.112946        6.262890        1.351347
  H           14.283591        6.409792        2.415363
  H           13.562607        7.126076        0.966683
  H           15.083066        6.208801        0.849478
  O            9.636872       10.763309        2.981667
  H            8.974365       11.363205        2.622707
  C            9.305938       10.520334        4.341026
  H           10.061982        9.842697        4.730944
  H            8.326977       10.044621        4.447151
  H            9.321331       11.436471        4.938008
  O           14.348621        2.081167        1.066202
  H           13.512783        2.472941        0.791373
  C           14.049911        0.925202        1.834920
  H           15.002235        0.495441        2.136937
  H           13.500662        0.177269        1.256254
  H           13.478094        1.166657        2.735284
  O            7.521115       11.671505       10.250520
  H            6.815751       12.040282       10.792836
  C            7.673419       10.306842       10.612333
  H            8.471903        9.905852        9.992284
  H            6.765044        9.727744       10.424101
  H            7.957725       10.188983       11.661719
  O            4.767771        3.776692        5.893548
  H            4.288955        2.946156        5.986207
  C            3.807733        4.813617        5.753820
  H            4.363391        5.742805        5.650463
  H            3.158900        4.894051        6.630449
  H            3.186164        4.681240        4.863843
  O            5.918633        3.136143       12.820023
  H            4.962537        3.170574       12.708950
  C            6.231904        1.916849       13.476982
  H            7.312851        1.893407       13.594605
  H            5.928500        1.044542       12.891357
  H            5.774469        1.854656       14.468352
  O            3.978848       10.022002        5.490165
  H            4.833457        9.632569        5.703771
  C            3.171261        9.001960        4.921193
  H            2.211816        9.456956        4.686089
  H            3.001238        8.175903        5.617363
  H            3.601278        8.604286        3.997682
  O           10.456685       12.348219       13.483964
  H           10.162881       11.438711       13.602771
  C           11.866932       12.369888       13.648726
  H           12.182259       13.401705       13.511794
  H           12.377231       11.750553       12.905792
  H           12.169108       12.045417       14.648396
  O            9.641278       11.096528        7.965105
  H            9.598779       11.687715        7.205940
  C            9.641406        9.764299        7.473600
  H            9.689632        9.110505        8.341389
  H           10.507842        9.560569        6.838216
  H            8.730162        9.531915        6.915421
  O            7.676594        0.840986        6.175172
  H            7.473736        0.003361        5.745201
  C            9.039998        0.802811        6.570244
  H            9.252721        1.753824        7.053103
  H            9.712763        0.690560        5.715424
  H            9.238511       -0.000438        7.285307
  O            0.889248        0.493441        9.218646
  H            1.692066        0.002303        9.423358
  C            1.199425        1.876947        9.296841
  H            0.284424        2.416549        9.063535
  H            1.966650        2.167786        8.573855
  H            1.527505        2.168770       10.298407
  O            6.672450        2.321810        7.816658
  H            6.619977        2.775526        6.968703
  C            6.170166        3.204704        8.808938
  H            6.236150        2.678518        9.758466
  H            5.124002        3.469613        8.632033
  H            6.760930        4.122248        8.879943
  O           10.831059        4.773738        5.451455
  H           10.218132        5.039703        4.757753
  C           10.915922        5.841749        6.383422
  H           11.610375        5.526248        7.158679
  H            9.950856        6.057694        6.850269
  H           11.300892        6.757266        5.925646
  O            8.460810        7.278748        8.576821
  H            8.374686        6.319907        8.605935
  C            7.153953        7.825401        8.478308
  H            7.268437        8.906471        8.446532
  H            6.534525        7.568215        9.342076
  H            6.641767        7.504680        7.566861
  O            8.755242        4.213145       13.317788
  H            8.151437        3.864516       12.653320
  C            9.935378        3.424167       13.283110
  H           10.605440        3.829899       14.037582
  H           10.435866        3.475493       12.312127
  H            9.736564        2.376213       13.524351
  O            2.241333       14.345441        4.415505
  H            1.320991       14.510669        4.646398
  C            2.543360       13.007198        4.781966
  H            3.583877       12.836853        4.515254
  H            1.925068       12.283833        4.243088
  H            2.429638       12.839556        5.856626
  O           12.581925        1.269618       10.067383
  H           12.215474        1.871266       10.724174
  C           11.569935        1.015922        9.104094
  H           11.998750        0.336434        8.371126
  H           11.255328        1.927549        8.588449
  H           10.691507        0.538036        9.546722
  O           11.010858       10.333231       11.889941
  H           10.362930        9.631777       12.015611
  C           10.616483       11.084378       10.751233
  H           11.356797       11.870748       10.623220
  H            9.636282       11.550358       10.885391
  H           10.598004       10.475298        9.843151
  O            7.915138        8.008675        0.646755
  H            7.766969        8.707287        0.000514
  C            8.656830        8.566776        1.721384
  H            8.815463        7.766849        2.440954
  H            8.115077        9.376601        2.217992
  H            9.632599        8.939559        1.397597
  O            6.157370        5.487539        0.324637
  H            6.706045        6.178388        0.711063
  C            6.834169        4.251661        0.500587
  H            6.202866        3.483539        0.059822
  H            6.984489        4.011979        1.556942
  H            7.802537        4.237261       -0.007338
  O           12.335870        8.290525        7.152907
  H           11.882787        7.742335        7.802403
  C           13.580992        7.672882        6.862049
  H           14.079184        8.302876        6.128740
  H           13.454614        6.675217        6.432371
  H           14.220056        7.599478        7.746436
  O            1.114401        8.052128        8.895172
  H            1.945618        7.640734        9.154928
  C            1.038504        9.314284        9.541402
  H            0.096225        9.764950        9.238352
  H            1.852775        9.979609        9.241008
  H            1.042130        9.219259       10.630846
  O            8.242102       13.327606       13.699153
  H            8.147097       13.776126       12.852133
  C            7.145076       12.437032       13.839943
  H            7.266947       11.939473       14.799323
  H            7.129990       11.675940       13.054804
  H            6.186246       12.962933       13.842156
  O           11.951255       12.257801        2.314561
  H           10.999813       12.396727        2.370211
  C           12.313456       11.344349        3.339660
  H           13.388496       11.198407        3.263370
  H           11.823046       10.374463        3.218211
  H           12.086904       11.733685        4.336165
  O           12.674590       14.284609        7.970726
  H           11.988846       14.854348        8.335133
  C           13.636628       14.062321        8.991256
  H           14.402468       13.418639        8.564651
  H           13.205095       13.557735        9.860223
  H           14.109587       14.991940        9.319965
  O            6.112691        6.440590       14.911032
  H            5.302782        6.954171       15.000041
  C            5.764644        5.181001       14.355416
  H            6.688177        4.614343       14.261531
  H            5.316436        5.279224       13.362746
  H            5.079898        4.622500       14.999722
  O            8.304663        2.662812        2.921663
  H            9.127910        2.163519        2.896952
  C            7.235764        1.728706        2.957897
  H            6.315258        2.307270        2.985474
  H            7.273265        1.095343        3.848613
  H            7.217046        1.090678        2.069922
  O           12.755071        3.879364        2.949260
  H           13.555127        3.344038        2.980516
  C           11.650346        3.015611        3.172694
  H           10.756615        3.634162        3.134360
  H           11.696445        2.534499        4.153682
  H           11.569993        2.243276        2.402646
  O            5.354361        9.044687       14.303629
  H            5.812797        9.872477       14.483189
  C            5.200339        8.934561       12.896306
  H            4.682088        7.996609       12.710583
  H            6.163049        8.906497       12.378296
  H            4.599407        9.749643       12.483448
  O            9.854246        1.849149        0.618276
  H            8.988119        2.269351        0.648218
  C            9.664854        0.457496        0.827660
  H           10.650148       -0.001505        0.790999
  H            9.043330        0.005504        0.049623
  H            9.220354        0.245379        1.804060
  O            8.466486        7.115215       12.867791
  H            8.294321        6.355864       13.434700
  C            7.762352        6.912579       11.651426
  H            7.966748        7.776875       11.023697
  H            6.682053        6.846195       11.807883
  H            8.100047        6.015220       11.125461
  O           13.022322        0.222015        5.793809
  H           12.359280        0.326662        5.103110
  C           13.447092        1.519970        6.182772
  H           14.194057        1.384581        6.961580
  H           12.626072        2.116248        6.590582
  H           13.905720        2.067790        5.354831
  O           13.970065       11.708305        7.266744
  H           13.667742       11.867730        6.366286
  C           12.834221       11.368266        8.048180
  H           13.191851       11.191712        9.059989
  H           12.346258       10.457583        7.689741
  H           12.098289       12.176650        8.077354
  O           12.546690        5.590812        9.150763
  H           11.989500        5.202357        9.833611
  C           13.278986        4.537411        8.542076
  H           13.901890        4.991726        7.774992
  H           12.623655        3.802939        8.065605
  H           13.928646        4.022621        9.255422
  O            9.920803        6.098234        1.619733
  H            9.353632        5.541333        2.163626
  C           10.618919        5.251436        0.718635
  H           11.253587        5.894253        0.112985
  H            9.940183        4.709755        0.053933
  H           11.254224        4.530374        1.240544
  O           14.834782       13.051621        4.917247
  H           14.930173       12.177661        4.523884
  C           14.202912       13.888037        3.959354
  H           14.102763       14.869072        4.418014
  H           13.205597       13.527225        3.692692
  H           14.797886       13.991362        3.047620
  O           10.755337        8.308407        3.299161
  H           10.593446        7.818588        4.112493
  C           12.061730        7.978509        2.850923
  H           12.228696        8.538577        1.933712
  H           12.163245        6.912528        2.628865
  H           12.829383        8.264221        3.575498
  O            3.884609        9.219706        9.607947
  H            4.633613        9.161992       10.210694
  C            4.250611        8.564053        8.402720
  H            3.395962        8.637950        7.734182
  H            4.474773        7.505632        8.562176
  H            5.109341        9.039415        7.920491
  O            6.082024        9.510354        3.275241
  H            5.807214       10.279965        3.784967
  C            5.701779        9.730383        1.924904
  H            6.018502        8.854221        1.363784
  H            6.191248       10.610260        1.498093
  H            4.619148        9.838941        1.815103
  O            7.049261       13.177647        7.291939
  H            6.222071       13.494087        6.913439
  C            7.291741       13.920158        8.477811
  H            8.227316       13.551550        8.892126
  H            6.503190       13.775935        9.221664
  H            7.399295       14.989994        8.278274
  O            3.848386        5.164819       11.666056
  H            3.082097        5.748059       11.649571
  C            4.613446        5.426366       10.498714
  H            5.473212        4.761162       10.532383
  H            4.975044        6.457944       10.466701
  H            4.051315        5.219348        9.583791
