36
doi: 10.1002/qua.26222
C    -4.096938    -1.344979     1.233230
H    -3.494144    -0.672328     1.850494
H    -3.630781    -2.333212     1.236915
H    -5.110860    -1.409972     1.636027
C    -4.131782    -0.825443    -0.130870
N    -4.150678    -0.406220    -1.214957
C    -0.808393    -0.760184    -2.095117
H    -0.369267    -1.527231    -2.738004
H    -0.159101     0.120469    -2.114224
H    -1.813250    -0.505264    -2.445856
C    -0.890090    -1.258929    -0.725989
N    -0.958433    -1.660266     0.363500
C     0.808405     0.760191     2.095157
H     0.369203     1.527204     2.738031
H     1.813274     0.505349     2.445920
H     0.159182    -0.120514     2.114251
C     0.890093     1.258939     0.726031
N     0.958425     1.660283    -0.363457
C     2.318880    -2.485548     0.990409
H     2.948300    -1.840205     1.610573
H     2.707687    -3.506751     1.020260
H     1.291136    -2.479171     1.366799
C     2.326319    -1.988563    -0.382674
N     2.324481    -1.592054    -1.475382
C     4.096920     1.344946    -1.233297
H     3.630172     2.332898    -1.237081
H     3.494634     0.671939    -1.850671
H     5.110884     1.410528    -1.635893
C     4.131785     0.825449     0.130817
N     4.150691     0.406254     1.214916
C    -2.318881     2.485577    -0.990382
H    -2.707600     3.506815    -1.020185
H    -2.948375     1.840309    -1.610550
H    -1.291150     2.479126    -1.366804
C    -2.326318     1.988546     0.382685
N    -2.324476     1.592003     1.475380
