12

O  -1.776108874  -2.741384797  -1.019308298
H  -2.520094035  -2.452295987  -0.420778302
C  -2.174025166  -3.952700964  -1.647004581
H  -1.359803895  -4.272673416  -2.304149236
H  -3.075973971  -3.808692420  -2.256751112
H  -2.370225393  -4.752784761  -0.918966137
O  -3.839777402   2.233595098   0.660436763
H  -2.958345897   1.907036203   0.973588449
C  -3.600368059   3.168790682  -0.390480452
H  -4.551709193   3.344148967  -0.901254863
H  -2.868237594   2.789240199  -1.113617525
H  -3.243594915   4.128998607   0.009549480
