30
doi: 10.1002/qua.26222
C     0.096723     3.229666    -0.009988
H     0.959394     2.860096    -0.572160
H     0.404822     3.410363     1.022512
H    -0.271396     4.155261    -0.459959
C    -0.949629     2.212196    -0.035740
N    -1.782770     1.401749    -0.059023
C    -0.110993    -1.133240     1.877368
H     0.411720    -1.982743     1.427660
H    -1.019386    -0.923439     1.304202
H    -0.388182    -1.384363     2.904486
C     0.763927     0.035185     1.867591
N     1.456947     0.968696     1.859508
C    -0.094067    -1.258148    -1.769493
H    -1.022059    -0.979020    -1.261718
H     0.398115    -2.058102    -1.207793
H    -0.330657    -1.618888    -2.773857
C     0.797034    -0.104795    -1.849717
N     1.510071     0.811361    -1.913047
C    -4.669338     0.011362    -0.065280
H    -5.708191    -0.327650    -0.079508
H    -4.454950     0.590717    -0.966263
H    -4.502037     0.659827     0.797808
C    -3.766793    -1.134553     0.003581
N    -3.052441    -2.049299     0.058045
C     4.117689     0.005902    -0.077951
H     3.613985     0.806608     0.471696
H     4.201406     0.301409    -1.126571
H     5.112148    -0.163593     0.342606
C     3.315382    -1.209636     0.025150
N     2.667571    -2.171094     0.109337
