15
doi: 10.1021/jp2069489
O          0.00000        0.00000        0.00000
H          0.96510        0.00000        0.00000
H         -0.26440        0.00000       -0.94127
O         -1.76592        0.00942       -2.13012
H         -2.20894       -0.65791       -1.54661
H         -1.92400       -0.28198       -3.03585
O         -2.55283       -1.61381       -0.11870
H         -1.69497       -1.48219        0.31493
H         -3.16733       -1.07907        0.42973
O         -4.02756        0.30944        1.26310
H         -3.46287        1.02618        0.89637
H         -4.01379        0.44153        2.21871
O         -2.16724        1.97734        0.03468
H         -1.34425        1.53101        0.30038
H         -2.24225        1.70381       -0.89522
