18

O  -3.839777402   2.233595098   0.660436763
H  -2.958345897   1.907036203   0.973588449
C  -3.600368059   3.168790682  -0.390480452
H  -4.551709193   3.344148967  -0.901254863
H  -2.868237594   2.789240199  -1.113617525
H  -3.243594915   4.128998607   0.009549480
O  -3.821405976  -2.118091637   0.596795346
H  -4.342989117  -1.344303030   0.251966383
C  -3.443883586  -1.809641231   1.934889393
H  -2.831494349  -2.637429600   2.305201764
H  -4.325601146  -1.719364371   2.585074667
H  -2.858527126  -0.882644791   1.996110694
O  -5.201143618   0.064582726  -0.172223772
H  -4.686891530   0.869258890   0.107806143
C  -6.513192168   0.171391798   0.359883449
H  -7.049381312  -0.749234190   0.111361174
H  -7.057741163   1.017801101  -0.081819420
H  -6.514770575   0.292264928   1.453058834
