18

O  -3.821405976  -2.118091637   0.596795346
H  -4.342989117  -1.344303030   0.251966383
C  -3.443883586  -1.809641231   1.934889393
H  -2.831494349  -2.637429600   2.305201764
H  -4.325601146  -1.719364371   2.585074667
H  -2.858527126  -0.882644791   1.996110694
O  -1.358578914   1.232360421   1.189721000
H  -1.058250183   1.216459361   0.238591307
C  -0.389763452   1.957872567   1.943072362
H  -0.747220771   2.012806578   2.975200343
H  -0.260410585   2.982763209   1.565366540
H   0.585220638   1.453754179   1.934070793
O   1.390610024   3.194080770  -1.536658882
H   2.162932299   2.881562730  -0.993525056
C   1.202977189   4.580367182  -1.302880219
H   0.374773115   4.915764831  -1.934164643
H   2.098649340   5.157710875  -1.570472348
H   0.950320401   4.800436015  -0.254328827
