12

O    1.819450   0.392881   0.241960
H    1.307851   0.087169  -0.582301
H    2.307522  -0.412736   0.505385
O    0.330052  -0.424224  -1.795388
H   -0.538339  -0.429893  -1.266386
H    0.239226   0.376650  -2.349727
O   -0.324902   0.386330   1.797639
H    0.544560   0.402354   1.269760
H   -0.519217   1.336343   1.926055
O   -1.827900  -0.356662  -0.254596
H   -2.027356  -1.294883  -0.063627
H   -1.310948  -0.063330   0.571226
