18

C   0.923766000   4.000693000  -1.575910000
H   0.011949000   4.478423000  -1.939550000
H   0.947903000   2.966558000  -1.929960000
H   1.805950000   4.519548000  -1.956520000
C   0.942834000   3.994846000  -0.131200000
N   0.960035000   3.982544000   1.035639000
C   4.602033000   0.321019000  -1.784800000
H   4.827650000  -0.662160000  -2.207910000
H   5.320558000   1.057980000  -2.148500000
H   3.601982000   0.643751000  -2.087520000
C   4.654967000   0.244048000  -0.343060000
N   4.691648000   0.166590000   0.820757000
C   4.214163000   3.378139000   1.593627000
H   3.242643000   3.657109000   2.012358000
H   4.969258000   4.086643000   1.941290000
H   4.482966000   2.372549000   1.931698000
C   4.130759000   3.388436000   0.150192000
N   4.050180000   3.381449000  -1.013420000
