18
doi: 10.1021/jp2069489
O -1.9241 -39.9369 0.2244
H -1.7339 -40.0619 -0.7214
H -2.0308 -38.9602 0.2590
O -1.6252 -37.1872 -0.1835
H -1.3632 -37.4801 -1.0740
H -0.7751 -37.0474 0.2718
O -0.7346 -39.0353 -2.2858 
H -0.6724 -39.1225 -3.2446
H 0.1927 -39.1034 -1.9556
O 1.6853 -39.1868 -1.0050
H 1.7953 -38.3281 -0.5647
H 1.4640 -39.7654 -0.2520
O 0.4498 -40.0965 1.4209
H -0.4725 -40.1381 1.0403
H 0.4880 -40.7832 2.0974
O 0.9394 -37.3782 1.1917
H 1.2480 -36.8472 1.9361
H 0.8015 -38.2813 1.5485 