18

O  -1.358578914   1.232360421   1.189721000
H  -1.058250183   1.216459361   0.238591307
C  -0.389763452   1.957872567   1.943072362
H  -0.747220771   2.012806578   2.975200343
H  -0.260410585   2.982763209   1.565366540
H   0.585220638   1.453754179   1.934070793
O   2.622209273  -1.703002590  -1.445859723
H   1.828551432  -1.986513781  -0.909754968
C   2.781117675  -2.615822239  -2.525472890
H   3.691063626  -2.339003544  -3.065143454
H   1.934727323  -2.559520367  -3.223226661
H   2.879948338  -3.653846211  -2.177750170
O   4.310535586  -1.588322800   0.656128299
H   3.804372199  -1.630404735  -0.196849819
C   4.312298137  -2.894980854   1.222112691
H   4.713177833  -2.819907076   2.237066773
H   4.957796734  -3.574699304   0.648211180
H   3.302735989  -3.324433205   1.269756773
