30
doi: 10.1002/qua.26222
C    -2.903447    -1.120042    -1.995790
H    -3.872618    -1.279912    -2.474951
H    -2.143509    -1.741235    -2.475983
H    -2.610770    -0.070345    -2.093078
C    -2.984212    -1.453649    -0.576677
N    -3.041573    -1.709300     0.555798
C     0.318112    -1.653628     1.364591
H    -0.705207    -1.859408     1.692503
H     0.753182    -0.836271     1.948524
H     0.943273    -2.539752     1.498780
C     0.306185    -1.272065    -0.044220
N     0.298915    -0.964016    -1.165986
C    -1.968852     1.148167     2.129677
H    -0.917594     1.179135     2.433071
H    -2.366600     0.137578     2.262554
H    -2.541287     1.846831     2.745299
C    -2.072736     1.522912     0.722454
N    -2.150240     1.823649    -0.397667
C     0.858237     2.395559    -1.356733
H     0.457605     1.523402    -1.883056
H     1.782814     2.729963    -1.836360
H     0.113326     3.193847    -1.392843
C     1.119792     2.022232     0.030827
N     1.336913     1.705747     1.128301
C     3.721255    -0.024364    -1.012420
H     2.798803    -0.047460    -1.601863
H     4.568459    -0.274943    -1.655933
H     3.863709     0.978999    -0.601578
C     3.615668    -0.991141     0.077546
N     3.529758    -1.768126     0.936610
