21
doi: 10.1021/jp013141b
O       -0.992254   -1.902753   -0.063001
H       -0.758968   -1.588223    0.801699
H       -1.757984   -1.398584   -0.323877
O       -2.952962    0.073753   -0.692765
H       -3.822160    0.147632   -0.335654
H       -2.432587    0.769077   -0.294318
O       -1.140619    1.783088    0.625791
H       -0.412563    1.924142    0.032976
H       -0.807920    1.204650    1.300927
O        0.150109   -0.372165    2.196015
H        0.245572   -0.521325    3.122266
H        1.030834   -0.300012    1.828058
O        1.191483    1.656799   -1.202687
H        1.318275    2.241349   -1.931739
H        1.104509    0.775105   -1.554683
O        2.545796   -0.087524    0.766622
H        2.393964   -0.686236    0.045772
H        2.457140    0.769654    0.372649
O        1.165956   -1.163665   -1.585933
H        0.388761   -1.479395   -1.113410
H        1.313063   -1.758097   -2.303007   
