18

O  -1.776108874  -2.741384797  -1.019308298
H  -2.520094035  -2.452295987  -0.420778302
C  -2.174025166  -3.952700964  -1.647004581
H  -1.359803895  -4.272673416  -2.304149236
H  -3.075973971  -3.808692420  -2.256751112
H  -2.370225393  -4.752784761  -0.918966137
O   4.310535586  -1.588322800   0.656128299
H   3.804372199  -1.630404735  -0.196849819
C   4.312298137  -2.894980854   1.222112691
H   4.713177833  -2.819907076   2.237066773
H   4.957796734  -3.574699304   0.648211180
H   3.302735989  -3.324433205   1.269756773
O   1.390610024   3.194080770  -1.536658882
H   2.162932299   2.881562730  -0.993525056
C   1.202977189   4.580367182  -1.302880219
H   0.374773115   4.915764831  -1.934164643
H   2.098649340   5.157710875  -1.570472348
H   0.950320401   4.800436015  -0.254328827
