18

C  -4.697980000  -0.249690000   1.746215000
H  -4.927570000   0.755530000   2.111799000
H  -3.709180000  -0.561560000   2.093253000
H  -5.432280000  -0.961520000   2.128066000
C  -4.714100000  -0.247110000   0.301670000
N  -4.729750000  -0.234960000  -0.865260000
C   1.502241000   0.651296000   1.710523000
H   1.309219000   1.637164000   2.143202000
H   2.493408000   0.297996000   2.009069000
H   0.746597000  -0.059850000   2.055508000
C   1.447974000   0.738517000   0.269805000
N   1.405612000   0.808047000  -0.894380000
C   4.602033000   0.321019000  -1.784800000
H   4.827650000  -0.662160000  -2.207910000
H   5.320558000   1.057980000  -2.148500000
H   3.601982000   0.643751000  -2.087520000
C   4.654967000   0.244048000  -0.343060000
N   4.691648000   0.166590000   0.820757000
