18
doi: 10.1021/jp2069489
O  -2.460422053  -1.194417099   0.277657794
H  -3.102722053  -1.699217099  -0.235542206
H  -1.585122053  -1.380417099  -0.149142206
O  -0.060122053  -1.358117099  -0.943342206
H   0.723277947  -1.615517099  -0.413042206
H   0.095677947  -0.416317099  -1.132842206
O   2.239477947  -1.683517099   0.629857794
H   3.047677947  -2.065317099   0.266357794
H   2.426477947  -0.723117099   0.705557794
O   2.429577947   1.090882901   0.629857794
H   1.626077947   1.374282901   0.144957794
H   2.436777947   1.620182901   1.436357794
O  -2.292522053   1.502082901   0.282457794
H  -2.476522053   0.529782901   0.311357794
H  -2.454922053   1.813482901   1.181157794
O   0.137777947   1.563782901  -0.880142206
H   0.107377947   2.181482901  -1.621042206
H  -0.745122053   1.639582901  -0.436142206
