18
doi: 10.1021/jp2069489
O          0.00000        0.00000        0.00000
H          0.96480        0.00000        0.00000
H         -0.25843        0.00000       -0.95712
O         -0.86294       -0.30199       -2.53839
H         -1.53197        0.32379       -2.88765
H         -1.35865       -1.13465       -2.44859
O         -3.06066        1.20799       -3.40959
H         -3.20556        1.39136       -4.34576
H         -3.72786        0.52581       -3.18022
O         -4.63872       -0.94098       -2.61873
H         -3.99410       -1.56206       -2.21911
H         -5.34960       -0.86465       -1.97107
O         -1.52520       -2.08756        0.78425
H         -0.90932       -1.33224        0.61024
H         -2.05805       -1.80638        1.53794
O         -2.55701       -2.52691       -1.66620
H         -2.46576       -3.46508       -1.87338
H         -2.24524       -2.43117       -0.73019