36

O    0.565907   0.022341  -1.840124
H   -0.268364   0.083197  -2.366845
H    0.449142   0.743390  -1.166087
O   -2.831873  -1.548204  -0.847148
H   -1.969453  -1.925845  -0.573188
H   -3.045619  -0.910826  -0.126210
O    2.350005  -2.214355   0.741685
H    2.745728  -1.638296   0.027135
H    2.940187  -2.978421   0.827675
O   -2.001309   0.312896  -2.552987
H   -2.378432  -0.432200  -2.001837
H   -2.440752   0.252492  -3.415139
O   -3.095696   0.429187   1.075380
H   -2.286738   0.272352   1.615154
H   -3.834026   0.452873   1.703391
O    1.995337  -0.227845   2.637162
H    2.185746  -1.031762   2.100069
H    2.360930   0.494201   2.077110
O   -0.185426  -1.923318  -0.138372
H    0.667409  -2.300072   0.186799
H    0.108690  -1.266664  -0.824487
O   -0.581868  -0.135625   1.878803
H   -0.477966  -0.848577   1.194088
H    0.297376  -0.151770   2.347756
O    2.794289   1.576291   0.709334
H    3.350057   2.345940   0.905100
H    1.906074   1.936856   0.478032
O    3.167727  -0.464752  -1.113056
H    3.191797   0.321996  -0.520722
H    2.329491  -0.341361  -1.606753
O    0.160197   1.824224   0.155787
H   -0.117104   1.163106   0.842397
H   -0.699881   2.209316  -0.166144
O   -2.338293   2.364339  -0.719646
H   -2.741242   1.787693  -0.031510
H   -2.275916   1.754593  -1.491847
