12

O   0.666045193  -2.600503172   0.138317521
H  -0.227115049  -2.712051982  -0.281868004
C   0.490021232  -1.851247678   1.341189459
H   1.466500502  -1.466176022   1.645844415
H   0.097564527  -2.488364683   2.146902740
H  -0.187588112  -1.000787499   1.200739571
O  -1.358578914   1.232360421   1.189721000
H  -1.058250183   1.216459361   0.238591307
C  -0.389763452   1.957872567   1.943072362
H  -0.747220771   2.012806578   2.975200343
H  -0.260410585   2.982763209   1.565366540
H   0.585220638   1.453754179   1.934070793
