36

O    0.901961  -3.120213  -0.259040
H    0.515299  -2.474485  -0.934429
H    0.989594  -3.974955  -0.718415
O   -2.695138   1.590580  -0.881687
H   -2.227589   1.364984  -1.734872
H   -2.622909   0.746549  -0.354516
O    2.800583  -1.478863   0.919545
H    2.281310  -2.207567   0.488660
H    2.293574  -1.326777   1.760449
O   -0.921244   3.074375   0.206259
H   -1.294821   3.937099   0.462054
H   -1.709606   2.525233  -0.217145
O    0.982228  -0.933724   2.962388
H    1.235071  -0.780047   3.890582
H    0.652230  -0.044875   2.610348
O   -0.898061  -2.611922   1.810843
H   -0.269416  -2.122934   2.403673
H   -0.292246  -2.966519   1.107621
O   -0.174741  -1.115552  -1.501951
H   -0.847789  -0.911967  -0.752758
H   -0.463666  -0.512643  -2.248274
O   -1.724721  -0.506722   0.500598
H   -1.615742  -1.370112   1.038547
H   -1.054979   0.106077   0.944322
O    0.182772   1.069107   1.524097
H    0.850500   0.886567   0.764871
H   -0.214426   1.955837   1.277524
O    1.741235   0.458668  -0.470156
H    1.068168  -0.146525  -0.917597
H    2.345055  -0.211630   0.013697
O    0.777615   2.542846  -1.874431
H    0.244699   2.920531  -1.119308
H    1.393230   1.905535  -1.416130
O   -0.959219   0.980557  -2.907667
H   -0.226153   1.648688  -2.561782
H   -1.071659   1.167194  -3.857525
