12

C  -4.219070000  -3.477410000  -1.501740000
H  -3.251530000  -3.803540000  -1.893830000
H  -4.452920000  -2.481700000  -1.890840000
H  -4.992170000  -4.178130000  -1.824640000
C  -4.154550000  -3.418790000  -0.058340000
N  -4.091140000  -3.354840000   1.104432000
C   0.923766000   4.000693000  -1.575910000
H   0.011949000   4.478423000  -1.939550000
H   0.947903000   2.966558000  -1.929960000
H   1.805950000   4.519548000  -1.956520000
C   0.942834000   3.994846000  -0.131200000
N   0.960035000   3.982544000   1.035639000
