18

O  -1.776108874  -2.741384797  -1.019308298
H  -2.520094035  -2.452295987  -0.420778302
C  -2.174025166  -3.952700964  -1.647004581
H  -1.359803895  -4.272673416  -2.304149236
H  -3.075973971  -3.808692420  -2.256751112
H  -2.370225393  -4.752784761  -0.918966137
O   2.622209273  -1.703002590  -1.445859723
H   1.828551432  -1.986513781  -0.909754968
C   2.781117675  -2.615822239  -2.525472890
H   3.691063626  -2.339003544  -3.065143454
H   1.934727323  -2.559520367  -3.223226661
H   2.879948338  -3.653846211  -2.177750170
O  -5.201143618   0.064582726  -0.172223772
H  -4.686891530   0.869258890   0.107806143
C  -6.513192168   0.171391798   0.359883449
H  -7.049381312  -0.749234190   0.111361174
H  -7.057741163   1.017801101  -0.081819420
H  -6.514770575   0.292264928   1.453058834
