18

O   0.666045193  -2.600503172   0.138317521
H  -0.227115049  -2.712051982  -0.281868004
C   0.490021232  -1.851247678   1.341189459
H   1.466500502  -1.466176022   1.645844415
H   0.097564527  -2.488364683   2.146902740
H  -0.187588112  -1.000787499   1.200739571
O   2.622209273  -1.703002590  -1.445859723
H   1.828551432  -1.986513781  -0.909754968
C   2.781117675  -2.615822239  -2.525472890
H   3.691063626  -2.339003544  -3.065143454
H   1.934727323  -2.559520367  -3.223226661
H   2.879948338  -3.653846211  -2.177750170
O   3.570084754   2.361662577  -0.202416728
H   3.393280933   1.755669977   0.560634073
C   4.368082883   1.644741793  -1.143112807
H   4.552851717   2.311801738  -1.989632421
H   3.862427494   0.740851663  -1.508095690
H   5.333949674   1.357289092  -0.706288100
