         234
  Built with Packmol                                             
  C           13.738160       11.845144       11.344386
  H           14.632266       12.054425       10.758573
  H           12.993720       12.613356       11.139301
  H           13.338423       10.877123       11.045144
  C           14.063934       11.832807       12.764538
  N           14.325182       11.822912       13.903400
  C            7.774552       12.775730        7.748929
  H            7.385708       12.995063        6.755403
  H            7.089898       12.095571        8.253936
  H            8.744759       12.290773        7.649353
  C            7.909113       14.007825        8.515055
  N            8.017021       14.995878        9.129434
  C            7.410794        7.312283        2.878953
  H            7.061529        8.112194        3.530533
  H            7.687812        6.454384        3.490239
  H            6.601340        7.022746        2.210109
  C            8.559408        7.765011        2.105109
  N            9.480515        8.128067        1.484539
  C            8.675351        9.597358       14.559580
  H            9.047023        8.605347       14.812903
  H            7.687576        9.727476       14.999774
  H            9.349273       10.344273       14.977129
  C            8.600027        9.747146       13.112168
  N            8.539623        9.867265       11.951445
  C            1.190881        6.522789        4.727238
  H            1.993141        5.955021        4.257751
  H            0.454944        5.827823        5.129508
  H            1.605837        7.110350        5.545151
  C            0.563905        7.402349        3.749288
  N            0.061114        8.107695        2.965041
  C            8.939435       10.526104        3.063320
  H            8.954085        9.493035        3.408217
  H            8.051795       11.017989        3.458977
  H            9.824221       11.037053        3.440792
  C            8.924067       10.565493        1.606844
  N            8.911744       10.597079        0.438852
  C            5.363815        3.578106        1.750925
  H            6.205317        3.559840        1.059592
  H            4.615158        2.861806        1.415028
  H            5.713202        3.286008        2.740374
  C            4.787712        4.915564        1.800146
  N            4.325717        5.988111        1.839618
  C            4.008290       14.365440       13.527526
  H            3.130067       15.000954       13.633579
  H            4.876783       14.992964       13.331733
  H            4.166791       13.823690       14.459075
  C            3.814484       13.425802       12.430880
  N            3.659064       12.672279       11.551447
  C            3.981859        4.713558        9.679402
  H            4.443851        3.984253        9.015266
  H            3.312759        5.346592        9.098046
  H            3.401079        4.185478       10.434535
  C            5.008256        5.526917       10.318204
  N            5.831355        6.179173       10.830478
  C           13.928548       11.536781        1.612287
  H           14.573436       11.340871        0.756636
  H           12.942836       11.828487        1.252179
  H           13.834216       10.624385        2.199685
  C           14.495437       12.600582        2.430869
  N           14.950042       13.453675        3.087314
  C            9.397548        7.094919        6.325340
  H            9.555359        7.640039        7.255039
  H            8.923607        6.140656        6.551527
  H            8.735315        7.674913        5.683893
  C           10.672085        6.872350        5.655167
  N           11.694174        6.693865        5.117736
  C            3.197738       10.170808       12.956023
  H            4.004906       10.803506       13.322866
  H            3.338707        9.160913       13.338960
  H            2.249212       10.559121       13.324684
  C            3.198245       10.156327       11.499005
  N            3.198651       10.144714       10.330579
  C           11.038918       14.162496        5.598810
  H           10.827492       14.403292        6.639827
  H           10.463663       13.281824        5.316148
  H           10.732762       15.000042        4.973362
  C           12.462584       13.904987        5.425670
  N           13.604263       13.698482        5.286824
  C            2.452810        9.629115        3.659580
  H            1.522101        9.928300        3.179301
  H            2.819939        8.720911        3.183364
  H            3.189353       10.420384        3.526167
  C            2.227491        9.391693        5.079430
  N            2.046800        9.201297        6.218050
  C           12.113930        2.721005        0.636867
  H           12.300303        1.858248       -0.001346
  H           12.955586        2.845647        1.316926
  H           12.029160        3.609951        0.013176
  C           10.885123        2.524517        1.394850
  N            9.899707        2.366946        2.002700
  C            9.557423        4.591384       13.405313
  H            8.864061        5.051742       14.107966
  H            9.431023        5.056346       12.428465
  H           10.576168        4.764477       13.749693
  C            9.298203        3.160455       13.313883
  N            9.090327        2.012950       13.240563
  C            1.490474       12.712597        4.072507
  H            1.167789       13.733251        3.871162
  H            0.755998       12.022102        3.660000
  H            2.448866       12.542271        3.583758
  C            1.619145       12.504377        5.508891
  N            1.722329       12.337399        6.660771
  C            6.593229       12.684448       13.986651
  H            6.033034       12.707074       14.920498
  H            7.331065       11.884765       14.036692
  H            5.905553       12.479733       13.167143
  C            7.257662       13.963426       13.772509
  N            7.790490       14.989076       13.600783
  C            8.734536       14.364704        2.442467
  H            9.123068       13.651476        1.716693
  H            9.553166       14.990131        2.796141
  H            7.992842       14.996093        1.954986
  C            8.128158       13.656558        3.562265
  N            7.641886       13.088675        4.460265
  C            1.617895       13.167349        9.383132
  H            0.959150       13.404922        8.548857
  H            1.346374       12.190171        9.780371
  H            2.644924       13.129004        9.022381
  C            1.491839       14.180803       10.422426
  N            1.390751       14.993522       11.255867
  C            7.091143        4.002324        5.815068
  H            6.901934        2.983142        5.480601
  H            8.062196        4.322663        5.439782
  H            6.321591        4.656467        5.407287
  C            7.075133        4.060556        7.270906
  N            7.062293        4.107253        8.438386
  C           13.993820        5.860506       12.202091
  H           13.899071        6.161205       11.159497
  H           13.040037        5.459018       12.541953
  H           14.751803        5.081948       12.277638
  C           14.372323        7.006052       13.019141
  N           14.675856        7.924700       13.674358
  C           11.094635        4.962378        9.596444
  H           10.344587        5.405777       10.250070
  H           11.837522        5.718929        9.347147
  H           11.585423        4.146082       10.124827
  C           10.464603        4.462584        8.381382
  N            9.959362        4.061784        7.406987
  C            3.971037        0.555463       12.562322
  H            4.636603       -0.000801       13.221104
  H            3.042538       -0.001947       12.445767
  H            3.749196        1.520066       13.016994
  C            4.602563        0.749659       11.263640
  N            5.109003        0.905391       10.222189
  C            8.940178        4.584411        0.586561
  H            9.143075        4.727313        1.647133
  H            9.686227        5.127546        0.007929
  H            9.015423        3.523320        0.352415
  C            7.605941        5.073001        0.263756
  N            6.535977        5.464816        0.004888
  C            0.906583       13.003722       13.800677
  H            0.766486       14.045403       14.086466
  H            0.020112       12.437576       14.083602
  H            1.031458       12.947678       12.720091
  C            2.081239       12.457244       14.467502
  N            3.023231       12.019007       15.002249
  C           14.156635       10.278355        7.678436
  H           13.486387       10.823777        7.015351
  H           15.000857       10.918327        7.931665
  H           13.620089       10.023742        8.591503
  C           14.628965        9.065804        7.022894
  N           15.007741        8.093423        6.497195
  C           11.594501        6.898964       14.437968
  H           12.309772        6.090045       14.580930
  H           10.687763        6.671564       14.997000
  H           12.024440        7.822733       14.822942
  C           11.283838        7.045587       13.021952
  N           11.034708        7.163168       11.886407
  C           14.113652        5.789205        1.179261
  H           13.953082        4.757348        0.869603
  H           14.999834        6.174872        0.676924
  H           13.251759        6.385284        0.882226
  C           14.291189        5.854486        2.624021
  N           14.433561        5.906836        3.782617
  C           11.350622        9.490904        4.901564
  H           12.113310        9.082837        5.563522
  H           10.405891        8.985346        5.097255
  H           11.232733       10.553252        5.111133
  C           11.741349        9.297158        3.511274
  N           12.054685        9.141788        2.396359
  C           14.435720        1.817365        3.550924
  H           14.311848        2.400614        4.462448
  H           14.992568        2.409366        2.825765
  H           15.003298        0.916932        3.782173
  C           13.132276        1.459355        3.006889
  N           12.087006        1.172256        2.570611
  C            6.671717        9.243839        9.260350
  H            6.906277        9.906370        8.428223
  H            7.243218        9.557027       10.133105
  H            5.609259        9.323596        9.486671
  C            7.005734        7.868845        8.912592
  N            7.273592        6.766196        8.633714
  C            3.406644        4.461674        5.595182
  H            2.491681        4.618907        6.164848
  H            3.163117        3.932555        4.674787
  H            3.836316        5.430190        5.342677
  C            4.356093        3.684431        6.381026
  N            5.117485        3.061136        7.011218
  C            6.473895        3.139968       12.385320
  H            5.793840        2.518895       11.803777
  H            6.905671        2.538535       13.184224
  H            7.274423        3.491217       11.735567
  C            5.754469        4.274977       12.948608
  N            5.177539        5.185174       13.400325
  C            5.350761        8.897465        5.964075
  H            5.266913        8.263372        5.082431
  H            6.369140        9.278250        6.029693
  H            4.665429        9.737787        5.861217
  C            5.026122        8.132748        7.161125
  N            4.765785        7.519498        8.121075
  C           11.409421       14.493003       14.008376
  H           10.827409       14.600235       14.922796
  H           10.889090       15.000286       13.197008
  H           12.382098       14.961755       14.151800
  C           11.578341       13.081805       13.687287
  N           11.713803       11.950123       13.429795
  C           10.908904        9.489838        8.742967
  H           11.525218        8.653341        8.416120
  H           10.175910        9.128333        9.462991
  H           11.545209       10.229161        9.227649
  C           10.231976       10.087369        7.599360
  N            9.689127       10.566547        6.682268
  C            9.679680        2.075624        4.897641
  H            8.644849        1.735827        4.889637
  H           10.252409        1.480262        4.187764
  H            9.710960        3.119761        4.589095
  C           10.240920        1.933656        6.234789
  N           10.690995        1.819807        7.307089
  C            1.217382        2.090125        9.130419
  H            0.447076        1.496792        9.621321
  H            0.974771        3.146066        9.242347
  H            2.174454        1.894628        9.612285
  C            1.290133        1.742152        7.717361
  N            1.348475        1.463103        6.584187
