96
doi: 10.1002/jcc.23575 ; hexadecamer1
C  -4.271749760  -3.667121641  -1.573818522
H  -3.984429760  -2.696691641  -1.986208522
H  -5.229439760  -3.974021641  -2.000858522
H  -3.508699760  -4.410401641  -1.823458522
C  -4.373099760  -3.562941641  -0.136548522
N  -4.441749760  -3.481791641   1.025492478
C   0.571988240  -4.873041641  -1.512468522
H   1.546120240  -4.656691641  -1.961168522
H  -0.172089760  -4.156671641  -1.874348522
H   0.245952240  -5.877821641  -1.790238522
C   0.674606240  -4.762581641  -0.075538522
N   0.767969240  -4.661371641   1.083299478
C  -2.235409760  -5.791661641   2.024902478
H  -3.012989760  -5.073281641   2.301677478
H  -1.255689760  -5.409791641   2.328833478
H  -2.423289760  -6.737501641   2.538194478
C  -2.247309760  -5.980371641   0.591423478
N  -2.249489760  -6.120941641  -0.566358522
C   3.768482240  -3.553701641   1.573175478
H   4.764974240  -3.218391641   1.876085478
H   3.566717240  -4.541911641   1.991396478
H   3.006556240  -2.863151641   1.945378478
C   3.697552240  -3.602391641   0.131048478
N   3.646349240  -3.639391641  -1.034038522
C  -1.359539760  -2.150531641   1.696637478
H  -2.321429760  -2.476791641   2.103527478
H  -1.155509760  -1.123161641   2.010018478
H  -0.560239760  -2.804051641   2.057794478
C  -1.405509760  -2.205961641   0.254029478
N  -1.448639760  -2.248841641  -0.911748522
C   1.612991240  -1.048491641  -1.735508522
H   2.408473240  -1.704711641  -2.100048522
H   1.796394240  -0.030431641  -2.089738522
H   0.644011240  -1.404111641  -2.100178522
C   1.609928240  -1.057971641  -0.291438522
N   1.597683240  -1.069111641   0.875749478
C   4.654876240   0.145018359   1.528686478
H   5.445135240  -0.551721641   1.823739478
H   3.690728240  -0.216331641   1.901085478
H   4.857100240   1.134677359   1.947972478
C   4.606316240   0.230677359   0.086984478
N   4.567844240   0.301640359  -1.077218522
C   6.477276240  -2.212811641  -1.998258522
H   5.628757240  -2.839501641  -2.287788522
H   7.384166240  -2.573791641  -2.488978522
H   6.268074240  -1.188181641  -2.315768522
C   6.622338240  -2.253091641  -0.560318522
N   6.724013240  -2.285651641   0.600978478
C   4.272429240   3.665396359  -1.574768522
H   3.983960240   2.694367359  -1.984998522
H   5.230450240   3.970347359  -2.002598522
H   3.510147240   4.408941359  -1.825898522
C   4.373701240   3.564122359  -0.137258522
N   4.442067240   3.485207359   1.024958478
C  -0.571859760   4.872674359  -1.511078522
H  -1.545889760   4.656852359  -1.960338522
H   0.172183240   4.156414359  -1.873098522
H  -0.245439760   5.877550359  -1.788328522
C  -0.675029760   4.761511359  -0.074298522
N  -0.769059760   4.659650359   1.084463478
C   2.237366240   5.791592359   2.024150478
H   3.014908240   5.072773359   2.299876478
H   1.257761240   5.410050359   2.328840478
H   2.426141240   6.737147359   2.537612478
C   2.248053240   5.980884359   0.590747478
N   2.249329240   6.121927359  -0.566988522
C  -3.769129760   3.554068359   1.572799478
H  -4.765379760   3.219130359   1.876870478
H  -3.566539760   4.542296359   1.990653478
H  -3.007039760   2.863347359   1.944311478
C  -3.699719760   3.602526359   0.130588478
N  -3.649619760   3.639515359  -1.034538522
C   1.361684240   2.150848359   1.697414478
H   2.323475240   2.477255359   2.104440478
H   1.156867240   1.123981359   2.012034478
H   0.562529240   2.805297359   2.057245478
C   1.408370240   2.204362359   0.254718478
N   1.451772240   2.245741359  -0.911128522
C  -1.610389760   1.048987359  -1.734348522
H  -2.406389760   1.704151359  -2.099708522
H  -1.791359760   0.030856359  -2.089818522
H  -0.641319760   1.406572359  -2.096978522
C  -1.609869760   1.057261359  -0.290258522
N  -1.599659760   1.067632359   0.876980478
C  -4.657049760  -0.143211641   1.528984478
H  -5.447459760   0.553172359   1.824422478
H  -3.692889760   0.218627359   1.900806478
H  -4.858479760  -1.132941641   1.948487478
C  -4.609159760  -0.229081641   0.087265478
N  -4.570989760  -0.300491641  -1.076898522
C  -6.476379760   2.213435359  -1.999318522
H  -5.628549760   2.841265359  -2.288478522
H  -7.383669760   2.573545359  -2.489948522
H  -6.265929760   1.189153359  -2.317198522
C  -6.621729760   2.252879359  -0.561358522
N  -6.723669760   2.284770359   0.599930478
