60

O    1.879358  -2.256453   2.296421
H    1.340401  -2.607722   1.552029
H    1.230961  -1.879192   2.936947
O    2.505983   0.552606  -0.876909
H    2.339263   1.532786  -0.826335
H    2.876961   0.311372   0.012159
O    0.592977  -3.135349  -2.462016
H    1.106032  -2.300750  -2.700559
H    1.013682  -3.857560  -2.952804
O    0.908085   3.308261   1.811113
H    1.156317   2.593924   2.452660
H   -0.071489   3.255812   1.730605
O    1.822719   1.436287   3.543729
H    2.366750   0.966465   2.868093
H    1.247121   0.722002   3.888780
O   -2.055923  -0.106922  -1.582871
H   -2.177744  -1.027197  -1.967216
H   -1.223137  -0.196829  -1.039148
O    1.790126  -0.889294  -3.061350
H    2.188611  -0.416362  -2.295360
H    1.029678  -0.309326  -3.304274
O   -1.033955   0.394868   2.074713
H   -0.465213   0.224726   1.276365
H   -1.340238   1.335634   1.979905
O   -3.035105  -0.989673   0.919729
H   -2.349184  -0.514895   1.454660
H   -2.959043  -0.573898   0.037032
O   -1.749549   2.876114   1.472608
H   -2.466164   3.329979   1.941501
H   -2.026825   2.825465   0.505548
O    1.858213   3.115326  -0.608314
H    1.513706   3.193686   0.339045
H    2.566738   3.772201  -0.688868
O    0.138475  -0.378671  -0.122155
H    0.258883  -1.358690   0.027710
H    1.006457  -0.029533  -0.470403
O    0.326175  -3.007881   0.183041
H   -0.625567  -3.273096   0.281406
H    0.541530  -3.195401  -0.768337
O   -2.121641  -2.628549  -2.421757
H   -2.318546  -3.055742  -1.556379
H   -1.168865  -2.840975  -2.566421
O   -0.336467   0.761199  -3.482027
H   -0.715471   0.735576  -4.375684
H   -1.069135   0.462658  -2.886322
O    3.142162  -0.038460   1.643327
H    4.074997  -0.153959   1.883585
H    2.704227  -0.919761   1.860419
O   -0.168451   3.317555  -2.496199
H   -0.131581   2.448541  -2.956545
H    0.577554   3.271862  -1.852469
O    0.273483  -0.837931   3.970160
H   -0.289800  -1.140865   4.698322
H   -0.332083  -0.366904   3.334042
O   -2.360521   2.669926  -1.077433
H   -1.568108   2.979428  -1.596409
H   -2.452675   1.726851  -1.317051
O   -2.304871  -3.412195   0.183756
H   -2.634906  -2.545781   0.567255
H   -2.789872  -4.115368   0.642061
