60

O    1.742730  -2.298407   2.399808
H    1.339389  -2.670773   1.570912
H    2.066285  -3.061176   2.897690
O    2.708764   0.342188  -0.645374
H    2.680211   1.324514  -0.766887
H    3.123552   0.173168   0.254521
O    1.148682  -3.222175  -2.484835
H    1.486140  -2.282895  -2.691341
H    1.740104  -3.826676  -2.952249
O    1.000602   2.922993   1.370133
H    1.283580   2.404803   2.156903
H    0.041195   3.111874   1.465985
O    1.828626   1.399464   3.438306
H    2.111233   1.774006   4.282655
H    1.150188   0.667883   3.658763
O   -3.322478   0.724539  -1.487747
H   -3.976219   0.611151  -2.192334
H   -2.451323   0.452587  -1.901111
O    1.831636  -0.778927  -2.930353
H    2.285547  -0.396889  -2.140005
H    0.964457  -0.333494  -2.969592
O   -1.371951   0.496929   1.822194
H   -1.573717   1.463723   1.768792
H   -0.686076   0.319104   1.128295
O   -3.116826  -1.135217   0.554655
H   -2.555391  -0.567975   1.141215
H   -3.338710  -0.530810  -0.186993
O   -1.681921   3.151359   1.469007
H   -2.214046   3.734831   2.025027
H   -2.033945   3.264602   0.508574
O    2.116265   2.917559  -0.904684
H    1.692619   2.976351   0.019022
H    2.671995   3.700874  -1.007138
O    0.259069  -0.367926  -0.064202
H    0.365825  -1.346362   0.042052
H    1.188660  -0.023898  -0.221148
O    0.544090  -3.048089   0.144994
H   -0.419679  -3.290618   0.122597
H    0.884879  -3.239014  -0.764961
O   -1.508278  -2.636639  -2.804247
H   -1.829432  -2.972287  -1.938910
H   -0.603572  -3.009847  -2.871198
O   -0.950856  -0.086520  -2.395745
H   -1.189859  -1.032376  -2.641224
H   -0.520253  -0.170622  -1.498370
O    3.446316  -0.119367   1.833302
H    2.984904  -0.958782   2.038441
H    2.991877   0.523308   2.422806
O   -0.300028   2.724325  -2.350468
H   -0.429142   1.788263  -2.582887
H    0.578079   2.785117  -1.915707
O    0.138611  -0.479356   3.812675
H   -0.547601  -0.163383   3.173020
H    0.593984  -1.215019   3.351236
O   -2.497764   3.337063  -0.946565
H   -1.670351   3.247273  -1.490846
H   -2.960882   2.492088  -1.125247
O   -2.069303  -3.338132  -0.163509
H   -2.656802  -4.045963   0.132283
H   -2.499021  -2.459521   0.150315
