18

O  -1.776108874  -2.741384797  -1.019308298
H  -2.520094035  -2.452295987  -0.420778302
C  -2.174025166  -3.952700964  -1.647004581
H  -1.359803895  -4.272673416  -2.304149236
H  -3.075973971  -3.808692420  -2.256751112
H  -2.370225393  -4.752784761  -0.918966137
O  -3.821405976  -2.118091637   0.596795346
H  -4.342989117  -1.344303030   0.251966383
C  -3.443883586  -1.809641231   1.934889393
H  -2.831494349  -2.637429600   2.305201764
H  -4.325601146  -1.719364371   2.585074667
H  -2.858527126  -0.882644791   1.996110694
O  -0.662721750   1.449094618  -1.383082065
H   0.064188300   2.119867608  -1.465650660
C  -0.353319239   0.341218776  -2.229326771
H  -1.072358530  -0.454743281  -2.019906495
H   0.657636746  -0.044472139  -2.042736771
H  -0.434616607   0.624733901  -3.287793021
