18

O  -1.358578914   1.232360421   1.189721000
H  -1.058250183   1.216459361   0.238591307
C  -0.389763452   1.957872567   1.943072362
H  -0.747220771   2.012806578   2.975200343
H  -0.260410585   2.982763209   1.565366540
H   0.585220638   1.453754179   1.934070793
O  -0.662721750   1.449094618  -1.383082065
H   0.064188300   2.119867608  -1.465650660
C  -0.353319239   0.341218776  -2.229326771
H  -1.072358530  -0.454743281  -2.019906495
H   0.657636746  -0.044472139  -2.042736771
H  -0.434616607   0.624733901  -3.287793021
O   4.310535586  -1.588322800   0.656128299
H   3.804372199  -1.630404735  -0.196849819
C   4.312298137  -2.894980854   1.222112691
H   4.713177833  -2.819907076   2.237066773
H   4.957796734  -3.574699304   0.648211180
H   3.302735989  -3.324433205   1.269756773
