18

C   1.912641000  -2.468050000  -1.750510000
H   2.876947000  -2.793500000  -2.151200000
H   1.688016000  -1.463720000  -2.122170000
H   1.123460000  -3.154780000  -2.069590000
C   1.977850000  -2.444240000  -0.306900000
N   2.036566000  -2.426130000   0.858249000
C   0.923766000   4.000693000  -1.575910000
H   0.011949000   4.478423000  -1.939550000
H   0.947903000   2.966558000  -1.929960000
H   1.805950000   4.519548000  -1.956520000
C   0.942834000   3.994846000  -0.131200000
N   0.960035000   3.982544000   1.035639000
C   4.602033000   0.321019000  -1.784800000
H   4.827650000  -0.662160000  -2.207910000
H   5.320558000   1.057980000  -2.148500000
H   3.601982000   0.643751000  -2.087520000
C   4.654967000   0.244048000  -0.343060000
N   4.691648000   0.166590000   0.820757000
