15
doi: 10.1021/jp2069489
O  -1.382005168   0.607803273   0.955104102
H  -1.514805168  -0.190496727   0.385704102
H  -2.108705168   0.593203273   1.589204102
O  -1.458205168  -1.614796727  -0.601295898
H  -0.507805168  -1.877996727  -0.631195898
H  -1.708205168  -1.512096727  -1.528095898
O   1.246194832  -1.984996727  -0.674895898
H   1.749194832  -2.673096727  -0.222995898
H   1.498094832  -1.143196727  -0.225295898
O   1.550194832   0.374603273   0.675204102
H   1.401894832   1.178703273   0.142704102
H   0.723694832   0.339603273   1.185604102
O   0.103894832   2.599803273  -0.402995898
H   0.109094832   3.466503273   0.021504102
H  -0.596105168   2.098003273   0.058804102
