6

O                  0.04687300   -0.75769200    0.00000000
H                 -0.87618500   -1.05160900    0.00000000
C                  0.04687300    0.66094600    0.00000000
H                  1.09415100    0.97510200    0.00000000
H                 -0.43709600    1.08618600    0.89315300
H                 -0.43709600    1.08618600   -0.89315300
