18
doi: 10.1021/jp2069489
O 26.0243 -46.8132 0.6983
H 25.9101 -46.6716 1.6460
H 26.0029 -47.7919 0.5870
O 26.0716 -49.5194 0.3763
H 26.7867 -49.9034 -0.1830
H 25.3029 -50.0816 0.2267
O 28.1035 -50.5775 -1.1078
H 29.0003 -50.2744 -0.8287
H 28.1161 -50.5173 -2.0704
O 28.2510 -45.6677 -0.3766
H 27.9994 -45.4294 -1.2768
H 27.4402 -46.0768 0.0100
O 30.5786 -49.7113 -0.3571
H 30.9359 -50.1242 0.4385
H 30.6024 -48.7444 -0.1688
O 30.5444 -47.0387 0.1802
H 29.7277 -46.5346 -0.0448
H 31.2721 -46.4282 0.0153 