54
doi: 10.1021/ct6002912
O    -2.2672604382     2.5341815979    -0.6805172135
H    -2.7863055593     1.7096518943    -0.4867507798
C    -2.0926507580     3.2257987537     0.5500663822
H    -1.8788514346     4.2751986616     0.3216096970
H    -1.2533531419     2.8210058049     1.1360646877
H    -3.0024156177     3.1802447069     1.1613634052
O     0.2206254168     1.9774212286    -1.5827205751
H    -0.7218063335     2.1969685603    -1.3567797784
C     0.2411859728     0.6997248823    -2.2291713992
H     1.2838451201     0.3910783651    -2.3376307323
H    -0.2150247083     0.7655823615    -3.2262066115
H    -0.2817221812    -0.0663899469    -1.6423686170
O    -3.2230172567    -2.0890796255     0.0342400947
H    -2.2444962801    -2.1670948143    -0.1175775181
C    -3.5339399616    -2.7764447299     1.2364140719
H    -4.6071834081    -2.6659451793     1.4165836882
H    -2.9940043494    -2.3709434716     2.1055366010
H    -3.3054076124    -3.8483101666     1.1563956829
O    -3.9232467838     0.5146364390    -0.0612440082
H    -3.6294948990    -0.4322405868     0.0074424417
C    -5.0386970818     0.5631639728    -0.9405171925
H    -5.2641420757     1.6165599317    -1.1301452013
H    -5.9248489629     0.0913041560    -0.4928205947
H    -4.8314416142     0.0726090563    -1.9018148434
O    -0.5565476958    -2.1865175164    -0.2520589605
H    -0.0336394999    -1.9258665165     0.5481328638
C     0.1684323551    -3.1927571755    -0.9581292382
H    -0.4208482776    -3.4615512411    -1.8393906612
H     0.3103237572    -4.0950270585    -0.3454989960
H     1.1450134445    -2.8164077760    -1.2853405169
O     0.9251466918    -1.5048337868     1.9296597686
H     1.7550810970    -1.0996761335     1.5844793860
C     0.3258708647    -0.5610567104     2.8142851788
H    -0.6963788044    -0.8958499304     3.0125950697
H     0.2945789470     0.4460263953     2.3792184644
H     0.8639859040    -0.5168554338     3.7722510631
O     1.6011096512     2.1145505101     0.6578824631
C     2.2302512102     3.3912409628     0.6347268219
H     1.0572315627     2.0293866333    -0.1854301764
H     2.8159831105     3.4964518311     1.5530771596
H     1.4858220103     4.1971748797     0.6058105217
H     2.9007738925     3.5065336714    -0.2282472224
O     3.0503024328    -0.0991876944     0.8756788515
C     4.2196716254     0.1189553851     1.6619287123
H     2.5631562288     0.7710978060     0.7616345550
H     4.7037590331    -0.8491133078     1.8137117583
H     3.9710464248     0.5448092158     2.6429297241
H     4.9255525656     0.7886669251     1.1532863826
O     3.0699382296    -1.2768195352    -1.7140195867
H     3.1147939842    -0.8915112243    -0.8148097509
C     4.3917151462    -1.4770650130    -2.1746560325
H     4.3283961171    -1.8976622075    -3.1828772069
H     4.9578263684    -2.1852526308    -1.5477688948
H     4.9667569743    -0.5388281348    -2.2355555487