18

O  -3.839777402   2.233595098   0.660436763
H  -2.958345897   1.907036203   0.973588449
C  -3.600368059   3.168790682  -0.390480452
H  -4.551709193   3.344148967  -0.901254863
H  -2.868237594   2.789240199  -1.113617525
H  -3.243594915   4.128998607   0.009549480
O   2.622209273  -1.703002590  -1.445859723
H   1.828551432  -1.986513781  -0.909754968
C   2.781117675  -2.615822239  -2.525472890
H   3.691063626  -2.339003544  -3.065143454
H   1.934727323  -2.559520367  -3.223226661
H   2.879948338  -3.653846211  -2.177750170
O  -5.201143618   0.064582726  -0.172223772
H  -4.686891530   0.869258890   0.107806143
C  -6.513192168   0.171391798   0.359883449
H  -7.049381312  -0.749234190   0.111361174
H  -7.057741163   1.017801101  -0.081819420
H  -6.514770575   0.292264928   1.453058834
