33
doi: 10.1021/jp013141b
O     3.253184    -0.576142     1.525532
H     3.398192     0.298394     1.162576
H     3.984501    -0.767211     2.089921
O     0.345704    -0.237739     1.934787
H     0.434796     0.443569     1.273972
H     1.235665    -0.465954     2.170549
O    -2.536379     0.406246     2.020272
H    -2.458872     1.194163     1.495379
H    -1.660217     0.196645     2.318904
O     3.424378     1.698411    -0.069044
H     3.575324     1.190422    -0.853522
H     2.510743     1.961474    -0.114088
O     0.563670     1.633052    -0.231560
H     0.425698     0.953892    -0.889180
H    -0.232061     2.152332    -0.210152
O    -2.210198     2.369987    -0.172228
H    -2.407654     1.727769    -0.857956
H    -2.710016     3.146819    -0.362583
O     3.160429    -1.023741    -1.412907
H     3.117771    -1.162800    -0.473185
H     3.719332    -1.698677    -1.762237
O     0.272130    -0.637937    -1.914168
H     0.026325    -1.319662    -1.287731
H     1.186901    -0.793849    -2.110983
O    -2.540880     0.305519    -1.990595
H    -2.891995    -0.404762    -1.465470
H    -1.688963     0.017286    -2.293096
O    -0.507256    -2.374602     0.133282
H    -0.244087    -1.814486     0.855496
H    -1.456277    -2.370309     0.137122
O    -3.301189    -1.519813     0.169359
H    -3.135019    -0.884452     0.868521
H    -4.118835    -1.946533     0.365896
