18
doi: 10.1021/jp2069489
O 29.7954 -37.1884 -0.3910
H 30.6865 -36.9230 -0.1328
H 29.8886 -38.1244 -0.7014
O 29.8265 -39.8168 -1.0122
H 29.6466 -40.1441 -1.9019
H 29.0506 -40.1097 -0.4687
O 27.7083 -40.3069 0.6051
H 27.6403 -39.4409 1.0439
H 26.8649 -40.3743 0.1095
O 25.3507 -40.1183 -0.9006
H 24.5083 -40.4902 -0.6120
H 25.2501 -39.1476 -0.7875
O 25.3917 -37.3962 -0.3791
H 25.5108 -36.7584 -1.0937
H 26.1882 -37.2944 0.1837
O 27.6626 -37.4465 1.2384
H 27.7398 -36.9721 2.0750
H 28.4945 -37.2512 0.7373 