18

C  -4.697980000  -0.249690000   1.746215000
H  -4.927570000   0.755530000   2.111799000
H  -3.709180000  -0.561560000   2.093253000
H  -5.432280000  -0.961520000   2.128066000
C  -4.714100000  -0.247110000   0.301670000
N  -4.729750000  -0.234960000  -0.865260000
C   5.300864000  -2.920090000   1.401103000
H   5.986071000  -2.139770000   1.737487000
H   5.636642000  -3.888750000   1.778233000
H   4.307359000  -2.697240000   1.799307000
C   5.234791000  -2.933140000  -0.043290000
N   5.170868000  -2.941760000  -1.207750000
C   1.912641000  -2.468050000  -1.750510000
H   2.876947000  -2.793500000  -2.151200000
H   1.688016000  -1.463720000  -2.122170000
H   1.123460000  -3.154780000  -2.069590000
C   1.977850000  -2.444240000  -0.306900000
N   2.036566000  -2.426130000   0.858249000
