18

C  -4.697980000  -0.249690000   1.746215000
H  -4.927570000   0.755530000   2.111799000
H  -3.709180000  -0.561560000   2.093253000
H  -5.432280000  -0.961520000   2.128066000
C  -4.714100000  -0.247110000   0.301670000
N  -4.729750000  -0.234960000  -0.865260000
C  -4.219070000  -3.477410000  -1.501740000
H  -3.251530000  -3.803540000  -1.893830000
H  -4.452920000  -2.481700000  -1.890840000
H  -4.992170000  -4.178130000  -1.824640000
C  -4.154550000  -3.418790000  -0.058340000
N  -4.091140000  -3.354840000   1.104432000
C   5.300864000  -2.920090000   1.401103000
H   5.986071000  -2.139770000   1.737487000
H   5.636642000  -3.888750000   1.778233000
H   4.307359000  -2.697240000   1.799307000
C   5.234791000  -2.933140000  -0.043290000
N   5.170868000  -2.941760000  -1.207750000
