12

O    1.741207  -0.503850  -0.362236
H    2.431746   0.048226  -0.752432
H    0.981513  -0.443232  -1.002681
O   -0.466686  -0.301265  -1.847822
H   -0.791885  -1.200344  -1.996426
H   -1.040943   0.041954  -1.111371
O   -1.741779   0.504648   0.362504
H   -0.981788   0.443904   1.002590
H   -2.430797  -0.050385   0.751233
O    0.466165   0.301841   1.847635
H    1.040212  -0.041580   1.111147
H    0.793004   1.200076   1.997658
