12

O    1.792488  -0.596432  -0.398032
H    2.389463   0.119658  -0.664998
H    1.002959  -0.482795  -0.992114
O   -0.485978  -0.269787  -1.800694
H   -0.787003  -1.184950  -1.917909
H   -1.036017   0.058708  -1.039704
O   -1.793210   0.593528   0.398943
H   -1.002725   0.481762   0.991918
H   -2.389668  -0.121336   0.670223
O    0.487172   0.271899   1.799331
H    1.037079  -0.058558   1.038892
H    0.785410   1.188297   1.913943
