72
doi: 10.1002/jcc.23575
C    -0.86952    -3.92938    1.700199
H    -0.05742    -3.26885    2.015352
H    -0.69753    -4.93067    2.101524
H    -1.82149    -3.54659    2.077146
C    -0.91608    -3.96996    0.256749
N    -0.95539    -3.99598    -0.90929
C    -4.69798    -0.24969    1.746215
H    -4.92757    0.75553    2.111799
H    -3.70918    -0.56156    2.093253
H    -5.43228    -0.96152    2.128066
C    -4.7141    -0.24711    0.30167
N    -4.72975    -0.23496    -0.86526
C    -4.21907    -3.47741    -1.50174
H    -3.25153    -3.80354    -1.89383
H    -4.45292    -2.4817    -1.89084
H    -4.99217    -4.17813    -1.82464
C    -4.15455    -3.41879    -0.05834
N    -4.09114    -3.35484    1.104432
C    -5.18131    2.853865    -1.6261
H    -5.48826    3.811434    -2.05331
H    -5.85759    2.068112    -1.96863
H    -4.17075    2.611402    -1.96664
C    -5.18726    2.91916    -0.18145
N    -5.1817    2.970641    0.98364
C    -1.50969    -0.69396    -1.61014
H    -1.32701    -1.6927    -2.01737
H    -0.74217    -0.00065    -1.9644
H    -2.49192    -0.33431    -1.92935
C    -1.47357    -0.74812    -0.1672
N    -1.44749    -0.79372    0.998938
C    -1.9557    2.51508    1.698463
H    -2.92383    2.883163    2.049269
H    -1.15485    3.17183    2.05099
H    -1.79038    1.506115    2.087896
C    -1.94823    2.482156    0.253672
N    -1.93755    2.462523    -0.91315
C    5.300864    -2.92009    1.401103
H    5.986071    -2.13977    1.737487
H    5.636642    -3.88875    1.778233
H    4.307359    -2.69724    1.799307
C    5.234791    -2.93314    -0.04329
N    5.170868    -2.94176    -1.20775
C    1.502241    0.651296    1.710523
H    1.309219    1.637164    2.143202
H    2.493408    0.297996    2.009069
H    0.746597    -0.05985    2.055508
C    1.447974    0.738517    0.269805
N    1.405612    0.808047    -0.89438
C    1.912641    -2.46805    -1.75051
H    2.876947    -2.7935    -2.1512
H    1.688016    -1.46372    -2.12217
H    1.12346    -3.15478    -2.06959
C    1.97785    -2.44424    -0.3069
N    2.036566    -2.42613    0.858249
C    0.923766    4.000693    -1.57591
H    0.011949    4.478423    -1.93955
H    0.947903    2.966558    -1.92996
H    1.80595    4.519548    -1.95652
C    0.942834    3.994846    -0.1312
N    0.960035    3.982544    1.035639
C    4.602033    0.321019    -1.7848
H    4.82765    -0.66216    -2.20791
H    5.320558    1.05798    -2.1485
H    3.601982    0.643751    -2.08752
C    4.654967    0.244048    -0.34306
N    4.691648    0.16659    0.820757
C    4.214163    3.378139    1.593627
H    3.242643    3.657109    2.012358
H    4.969258    4.086643    1.94129
H    4.482966    2.372549    1.931698
C    4.130759    3.388436    0.150192
N    4.05018    3.381449    -1.01342
