30
doi: 10.1002/qua.26222
C     1.844001     2.771086     0.545222
H     2.656471     3.499595     0.481013
H     2.014522     2.099193     1.391316
H     0.891502     3.284208     0.694774
C     1.786973     1.980229    -0.680998
N     1.757853     1.355197    -1.660670
C    -0.981530    -0.241612    -2.172307
H    -1.947113    -0.638987    -2.497014
H    -0.382889     0.058156    -3.035671
H    -1.132705     0.637162    -1.536896
C    -0.264819    -1.257482    -1.406786
N     0.304632    -2.069456    -0.801226
C    -0.635406    -1.210088     2.210079
H    -0.879046    -1.137257     3.273188
H     0.385125    -1.581029     2.088785
H    -1.331653    -1.893099     1.714488
C    -0.741924     0.105413     1.587800
N    -0.853684     1.150674     1.089877
C    -3.973748     1.236392    -0.228034
H    -4.878001     1.533432     0.309192
H    -4.114288     1.435243    -1.294279
H    -3.123593     1.818576     0.140664
C    -3.703488    -0.183712    -0.015842
N    -3.467210    -1.309648     0.146758
C     3.432704    -1.520352    -0.650369
H     3.073620    -0.924254    -1.494499
H     3.003773    -2.522222    -0.724710
H     4.524176    -1.575608    -0.673095
C     2.989878    -0.892995     0.591364
N     2.647587    -0.385965     1.579828
