48

O    2.998958   0.510510  -3.197062
H    3.521012  -0.065511  -2.494855
H    3.678480   0.947449  -3.742386
O   -2.251660   0.172326  -0.376611
H   -1.880394  -0.475566   0.313349
H   -3.109474   0.480148   0.037896
O   -0.437804  -0.551660  -2.173738
H   -1.321743  -0.308181  -1.780758
H    0.156301   0.237316  -1.933861
O    1.373132  -1.549507  -3.929290
H    0.529044  -1.239433  -3.501555
H    1.963961  -0.745730  -3.862571
O    2.435285  -3.007246  -2.112464
H    1.997812  -2.481976  -2.906035
H    2.673789  -3.883090  -2.467134
O   -4.051709   1.108132   1.331190
H   -4.972220   1.417837   1.248978
H   -3.489158   1.943686   1.615868
O    0.448564   0.664142   2.175015
H   -0.013520   0.945657   3.017030
H    0.077972   1.312900   1.486128
O   -2.992611  -0.517858   3.249225
H   -2.406331  -1.086770   2.680414
H   -3.550674  -0.024802   2.583124
O   -1.411290   1.371059   3.945850
H   -2.068113   0.578481   3.753848
H   -1.416395   1.505271   4.911271
O    1.227243   1.362464  -1.404589
H    1.891405   1.336765  -2.153204
H    1.674987   0.802335  -0.683548
O   -2.517409   3.017098   2.075880
H   -1.794946   3.007534   1.391781
H   -2.088528   2.573244   2.862188
O   -1.123656  -1.354423   1.476893
H   -0.475124  -0.639391   1.795487
H   -0.551735  -1.972677   0.943760
O   -0.650582   2.181502   0.296533
H    0.043152   2.220533  -0.418387
H   -1.291454   1.462867  -0.027980
O    4.100485  -0.965010  -1.419145
H    3.656898  -0.673909  -0.577144
H    3.649929  -1.834018  -1.621026
O    2.244519  -0.258311   0.431339
H    1.869542   0.085084   1.287474
H    1.642226  -1.045751   0.205698
O    0.609625  -2.184374  -0.362869
H    1.244204  -2.754167  -0.887656
H    0.161369  -1.626524  -1.085626
