30

O    0.23703864  -0.73787525  -2.55592812
H    0.61560008  -1.43045457  -1.99386422
H   -0.69839429  -0.66185357  -2.25931192
O    1.22217912   1.01280798   2.15227074
H    1.81203488   1.20746935   2.88025504
H    1.75725652   0.50190472   1.48321706
O   -2.21494969   1.60690659   0.24267576
H   -1.32542893   2.05114619   0.15921734
H   -2.87001790   2.30391915   0.21512920
O   -2.14855946  -0.66895002  -1.34031538
H   -1.97050615  -1.33007688  -0.65484383
H   -2.24616879   0.17321101  -0.86553808
O    0.18228672   2.65133332   0.17139428
H    0.56702470   2.22746724   0.95732840
H    0.67193494   2.27649230  -0.58326923
O    2.55657968  -0.22209820   0.26946490
H    2.11153113  -1.05374494   0.03801926
H    2.37853896   0.37844493  -0.47657840
O   -1.28512961  -2.25687481   0.82884756
H   -1.76411295  -2.92277407   1.32212918
H   -1.27283350  -1.43728020   1.40584851
O   -1.30760390  -0.06562653   2.22640523
H   -0.40463185   0.29053948   2.30402246
H   -1.76712844   0.54155062   1.61874191
O    1.05984366  -2.44563407  -0.47953655
H    0.21148931  -2.39254868   0.01083093
H    1.32066371  -3.36674892  -0.48804653
O    1.59455659   1.33884389  -1.78135801
H    1.03551590   0.58243307  -2.12720194
H    1.99795376   1.74648978  -2.54737180
