30
doi: 10.1021/ct6002912
O    -1.1049503873    -0.4638445857    -1.2752983367
H    -0.1714483929    -0.4652131421    -0.94773059
C    -1.0892151894    -0.4860762058    -2.699073197
H    -2.1283624778    -0.493713378     -3.0386085769
H    -0.5938324023    -1.3894504446    -3.0780794083
H    -0.5907005527     0.3968266212    -3.1246804969
O    -1.8770745538     1.7773779938     0.0594811294
H    -1.698980379      0.9765559647    -0.4971724183
C    -2.9582778361     1.4763839232     0.9324573483
H    -3.1359863637     2.3570289583     1.556342731
H    -2.7432163512     0.6192579735     1.5871922656
H    -3.8773876656     1.261588442      0.3705864638
O     0.6432550401     2.0920769812     1.0213884725
H    -0.3016582681     2.1047328709     0.7140496
C     0.662054735      2.2068879929     2.4390922451
H     1.7062125275     2.1660379259     2.7610415883
H     0.1134018011     1.3919976749     2.9336116325
H     0.2373815214     3.1656849743     2.7654029933
O     1.3836843719    -0.1916442967    -0.1492205193
H     1.200427184      0.6520549639     0.3527973554
C     2.5401108915    -0.0142734761    -0.9691435046
H     2.7626446142    -0.9851155929    -1.4174359529
H     3.4027201792     0.3044053749    -0.3710756661
H     2.3660034814     0.7254822697    -1.761720512
O     1.6144272534    -2.9518502489     0.2886310819
H     1.5295092565    -1.9897395074     0.4258854243
C     0.3094545582    -3.4980192119     0.3297956302
H     0.3700761641    -4.5279810123    -0.0374673292
H    -0.4016027855    -2.945855928     -0.3037077252
H    -0.1046978401    -3.5309298925     1.3521428678