24
doi: 10.1002/qua.26222
C    -2.661601     0.002422    -1.723468
H    -3.546118     0.474788    -2.158183
H    -2.602512    -1.041532    -2.040644
H    -1.759494     0.521131    -2.061085
C    -2.722996     0.068570    -0.266218
N    -2.760666     0.122550     0.894426
C     2.661599    -0.002452    -1.723470
H     3.546103    -0.474847    -2.158179
H     2.602532     1.041497    -2.040666
H     1.759480    -0.521147    -2.061074
C     2.722997    -0.068573    -0.266219
N     2.760670    -0.122529     0.894426
C     0.073254     1.873965     1.725621
H     0.929799     1.298230     2.090055
H    -0.858982     1.423569     2.079679
H     0.144127     2.899184     2.098156
C     0.083252     1.871742     0.265471
N     0.096138     1.867371    -0.896815
C    -0.073252    -1.873938     1.725650
H    -0.929794    -1.298194     2.090075
H     0.858987    -1.423542     2.079698
H    -0.144130    -2.899151     2.098202
C    -0.083253    -1.871739     0.265501
N    -0.096142    -1.867388    -0.896785
