18

C  -4.219070000  -3.477410000  -1.501740000
H  -3.251530000  -3.803540000  -1.893830000
H  -4.452920000  -2.481700000  -1.890840000
H  -4.992170000  -4.178130000  -1.824640000
C  -4.154550000  -3.418790000  -0.058340000
N  -4.091140000  -3.354840000   1.104432000
C  -5.181310000   2.853865000  -1.626100000
H  -5.488260000   3.811434000  -2.053310000
H  -5.857590000   2.068112000  -1.968630000
H  -4.170750000   2.611402000  -1.966640000
C  -5.187260000   2.919160000  -0.181450000
N  -5.181700000   2.970641000   0.983640000
C   1.912641000  -2.468050000  -1.750510000
H   2.876947000  -2.793500000  -2.151200000
H   1.688016000  -1.463720000  -2.122170000
H   1.123460000  -3.154780000  -2.069590000
C   1.977850000  -2.444240000  -0.306900000
N   2.036566000  -2.426130000   0.858249000
