12

C  -0.869520000  -3.929380000   1.700199000
H  -0.057420000  -3.268850000   2.015352000
H  -0.697530000  -4.930670000   2.101524000
H  -1.821490000  -3.546590000   2.077146000
C  -0.916080000  -3.969960000   0.256749000
N  -0.955390000  -3.995980000  -0.909290000
C   4.602033000   0.321019000  -1.784800000
H   4.827650000  -0.662160000  -2.207910000
H   5.320558000   1.057980000  -2.148500000
H   3.601982000   0.643751000  -2.087520000
C   4.654967000   0.244048000  -0.343060000
N   4.691648000   0.166590000   0.820757000
