18

C  -0.869520000  -3.929380000   1.700199000
H  -0.057420000  -3.268850000   2.015352000
H  -0.697530000  -4.930670000   2.101524000
H  -1.821490000  -3.546590000   2.077146000
C  -0.916080000  -3.969960000   0.256749000
N  -0.955390000  -3.995980000  -0.909290000
C  -4.697980000  -0.249690000   1.746215000
H  -4.927570000   0.755530000   2.111799000
H  -3.709180000  -0.561560000   2.093253000
H  -5.432280000  -0.961520000   2.128066000
C  -4.714100000  -0.247110000   0.301670000
N  -4.729750000  -0.234960000  -0.865260000
C  -4.219070000  -3.477410000  -1.501740000
H  -3.251530000  -3.803540000  -1.893830000
H  -4.452920000  -2.481700000  -1.890840000
H  -4.992170000  -4.178130000  -1.824640000
C  -4.154550000  -3.418790000  -0.058340000
N  -4.091140000  -3.354840000   1.104432000
