18

O  -3.839777402   2.233595098   0.660436763
H  -2.958345897   1.907036203   0.973588449
C  -3.600368059   3.168790682  -0.390480452
H  -4.551709193   3.344148967  -0.901254863
H  -2.868237594   2.789240199  -1.113617525
H  -3.243594915   4.128998607   0.009549480
O  -0.662721750   1.449094618  -1.383082065
H   0.064188300   2.119867608  -1.465650660
C  -0.353319239   0.341218776  -2.229326771
H  -1.072358530  -0.454743281  -2.019906495
H   0.657636746  -0.044472139  -2.042736771
H  -0.434616607   0.624733901  -3.287793021
O   2.622209273  -1.703002590  -1.445859723
H   1.828551432  -1.986513781  -0.909754968
C   2.781117675  -2.615822239  -2.525472890
H   3.691063626  -2.339003544  -3.065143454
H   1.934727323  -2.559520367  -3.223226661
H   2.879948338  -3.653846211  -2.177750170
