         288
  Built with Packmol                                             
  C            4.103904       -2.326479        7.172723
  H            5.058159       -2.052723        7.620891
  H            3.762577       -3.262513        7.612879
  H            3.374833       -1.547150        7.390675
  C            4.255203       -2.478964        5.731555
  N            4.376535       -2.601246        4.575838
  C           -6.839962        4.117053       -3.318022
  H           -7.430959        4.862228       -3.848904
  H           -5.783182        4.347874       -3.445840
  H           -7.085448        4.161472       -2.257756
  C           -7.126947        2.787734       -3.841149
  N           -7.357089        1.721713       -4.260660
  C           -0.975236       -3.019261       -2.061168
  H           -0.554208       -3.442929       -1.150321
  H           -1.686432       -3.727521       -2.484213
  H           -1.500002       -2.097791       -1.812340
  C            0.086398       -2.745090       -3.020791
  N            0.937753       -2.525224       -3.790341
  C            6.184387        0.247549        6.261698
  H            5.529275        1.115204        6.328072
  H            6.623340        0.060697        7.240885
  H            5.593781       -0.619299        5.968170
  C            7.235376        0.489916        5.282009
  N            8.078196        0.684277        4.496367
  C            2.442786       -2.985077        1.623286
  H            1.691469       -2.557968        2.286235
  H            2.780434       -2.215786        0.930043
  H            3.290579       -3.319932        2.219540
  C            1.877243       -4.107430        0.885996
  N            1.423716       -5.007478        0.294742
  C            1.032397       -0.472087       -5.635417
  H            1.132771       -0.242480       -4.575414
  H            1.547018        0.294597       -6.213138
  H            1.498752       -1.436254       -5.833648
  C           -0.376300       -0.513936       -6.005458
  N           -1.505977       -0.547497       -6.302205
  C            7.749647        2.225799        2.081470
  H            7.250856        2.263892        1.113918
  H            8.170456        1.231165        2.222973
  H            8.557894        2.955898        2.091144
  C            6.798314        2.520792        3.144981
  N            6.035412        2.757356        3.997843
  C            3.067800        3.141009       -4.050328
  H            2.842110        2.082395       -4.171990
  H            2.143027        3.710827       -4.130960
  H            3.495249        3.299587       -3.061116
  C            4.009689        3.571190       -5.075463
  N            4.765017        3.916165       -5.897549
  C            0.142198        3.739628        4.164846
  H            0.883515        3.273366        4.812496
  H           -0.637761        4.182772        4.782655
  H            0.623946        4.526512        3.585940
  C           -0.435046        2.744653        3.270461
  N           -0.897956        1.946753        2.553226
  C           -4.254086       -3.216320       -0.912264
  H           -5.030441       -3.835031       -1.360449
  H           -3.574147       -3.855028       -0.350004
  H           -3.697032       -2.719097       -1.705272
  C           -4.854168       -2.225996       -0.027804
  N           -5.335392       -1.431825        0.681471
  C           -2.638958       -6.546273        5.559716
  H           -2.015661       -6.327905        4.693565
  H           -3.684409       -6.535563        5.254235
  H           -2.390130       -7.538948        5.932653
  C           -2.413163       -5.551519        6.600192
  N           -2.232091       -4.753796        7.434582
  C           -4.376523        1.247961       -2.572211
  H           -3.600064        1.618632       -1.904293
  H           -4.359812        1.831783       -3.491599
  H           -4.168524        0.205951       -2.811694
  C           -5.680769        1.361972       -1.932637
  N           -6.726682        1.453401       -1.419743
  C            4.372520        2.887090       -0.627876
  H            3.809294        2.156740       -1.207329
  H            5.430032        2.629099       -0.666706
  H            4.232911        3.872543       -1.070362
  C            3.910473        2.890854        0.754010
  N            3.539944        2.893873        1.862186
  C            2.195474       -7.264277       -1.395246
  H            2.906366       -6.724144       -0.771316
  H            2.403948       -8.331102       -1.325799
  H            1.187953       -7.076553       -1.026380
  C            2.310314       -6.822697       -2.779056
  N            2.402407       -6.468581       -3.888775
  C           -1.331399       -4.299569        1.569048
  H           -2.326686       -4.642720        1.289672
  H           -0.595321       -5.011874        1.198630
  H           -1.149111       -3.330509        1.106345
  C           -1.231193       -4.187017        3.018325
  N           -1.150834       -4.096759        4.180543
  C            3.405544       -3.949274       -2.510368
  H            3.184605       -4.918595       -2.065394
  H            2.691996       -3.757101       -3.310567
  H            3.298056       -3.178205       -1.748594
  C            4.762950       -3.941353       -3.039989
  N            5.851494       -3.935000       -3.464709
  C           -0.042202        0.106843        0.200717
  H            0.782291        0.245416        0.898865
  H           -0.758965       -0.589300        0.634347
  H           -0.533772        1.065444        0.039956
  C            0.457837       -0.415587       -1.064249
  N            0.858833       -0.834540       -2.078662
  C            1.004390       -2.316985        5.897697
  H            1.660434       -3.091481        5.502524
  H            1.213802       -1.380225        5.382888
  H           -0.030234       -2.600232        5.708690
  C            1.224770       -2.159376        7.329376
  N            1.401499       -2.032985        8.477481
  C            4.282447       -7.713348        2.329719
  H            3.424569       -7.078940        2.548745
  H            5.134321       -7.369911        2.915177
  H            4.046745       -8.737409        2.616323
  C            4.597323       -7.653140        0.908332
  N            4.849832       -7.604857       -0.231520
  C            3.228803        4.530013        4.384720
  H            2.849150        3.682208        3.815958
  H            4.317647        4.503669        4.373549
  H            2.892941        5.451718        3.911375
  C            2.742458        4.468059        5.756851
  N            2.352444        4.418377        6.857203
  C            1.165792        1.600129       -8.189001
  H            0.285055        1.059440       -7.844971
  H            1.887940        0.885472       -8.581643
  H            0.872848        2.280935       -8.987178
  C            1.754017        2.348597       -7.085869
  N            2.225731        2.948816       -6.201235
  C           -0.444195       -3.163725       -6.612528
  H           -1.019073       -2.470851       -7.225587
  H           -0.247226       -2.700748       -5.646477
  H           -1.030634       -4.068427       -6.457597
  C            0.812085       -3.490903       -7.274213
  N            1.819534       -3.753277       -7.804838
  C            5.397488        0.198621        0.653153
  H            4.571181       -0.387022        1.053952
  H            5.316465        1.220958        1.020118
  H            6.336024       -0.229011        1.003413
  C            5.356836        0.186817       -0.803322
  N            5.324236        0.177351       -1.971313
  C           -6.971858        2.171215        2.267248
  H           -6.552094        1.293392        1.777733
  H           -6.809425        2.088300        3.341091
  H           -6.459241        3.059350        1.900042
  C           -8.398098        2.265796        1.984395
  N           -9.541843        2.341644        1.757568
  C           -1.350537       -2.464321        8.642971
  H           -0.723910       -1.628119        8.950387
  H           -1.051151       -2.781834        7.644996
  H           -1.201316       -3.291064        9.336245
  C           -2.751269       -2.063013        8.639433
  N           -3.874558       -1.741191        8.636596
  C            0.098721       -6.087994       -6.009709
  H           -0.941983       -6.128732       -5.690841
  H            0.132097       -5.939996       -7.088311
  H            0.584701       -5.243870       -5.522186
  C            0.777891       -7.327383       -5.655092
  N            1.322539       -8.321286       -5.370714
  C            5.023429       -5.007992       -5.799235
  H            5.968861       -4.947575       -6.336736
  H            5.134461       -5.700779       -4.966098
  H            4.775886       -4.022019       -5.408111
  C            3.969627       -5.468641       -6.693895
  N            3.124552       -5.838048       -7.411350
  C           -0.439955        0.787742        6.026645
  H           -0.127122        0.620415        4.996821
  H            0.325131        0.396806        6.696131
  H           -0.542671        1.858968        6.194943
  C           -1.710375        0.119493        6.276820
  N           -2.729163       -0.416395        6.477443
  C           -1.167317       -0.782625        3.215801
  H           -0.385727       -0.176236        2.759940
  H           -1.537457       -1.494047        2.478729
  H           -0.743507       -1.332170        4.055316
  C           -2.255428        0.070107        3.676207
  N           -3.128017        0.753938        4.045419
  C            6.508564       -5.790340       -0.849171
  H            7.098919       -4.884602       -0.981529
  H            6.988330       -6.418232       -0.099521
  H            5.515096       -5.516038       -0.496780
  C            6.408704       -6.509638       -2.112402
  N            6.328623       -7.086464       -3.125424
  C            6.351653        5.489062        0.664639
  H            6.018018        4.527179        0.277511
  H            7.359661        5.685453        0.301666
  H            5.685592        6.268250        0.296360
  C            6.340825        5.471221        2.121580
  N            6.332141        5.456914        3.289944
  C            5.851369       -3.281254        0.661341
  H            5.364992       -3.336698       -0.311677
  H            5.489775       -2.398548        1.187154
  H            5.589923       -4.167611        1.237897
  C            7.296634       -3.204270        0.492832
  N            8.455635       -3.142534        0.357700
  C            3.813385       -1.436286       -7.217729
  H            4.166238       -0.475122       -7.589292
  H            2.805314       -1.610935       -7.591481
  H            4.469419       -2.221624       -7.590909
  C            3.812321       -1.437819       -5.760640
  N            3.811467       -1.439049       -4.592157
  C            5.290628        1.431274       -5.766789
  H            5.683787        2.038576       -6.581043
  H            4.210277        1.348242       -5.877910
  H            5.729189        0.435943       -5.824938
  C            5.614525        2.044934       -4.485531
  N            5.874267        2.537047       -3.458051
  C           -3.732316        1.066216        0.808412
  H           -3.095005        0.197284        0.649685
  H           -4.647266        0.943476        0.230311
  H           -3.988020        1.128320        1.865369
  C           -3.037516        2.277184        0.391372
  N           -2.480336        3.248295        0.056935
  C           -3.903616        2.960745       -6.555448
  H           -4.216430        3.379087       -7.511240
  H           -4.260974        3.605674       -5.753723
  H           -4.348709        1.973409       -6.439437
  C           -2.450733        2.861825       -6.505872
  N           -1.285623        2.782498       -6.466115
  C           -0.623648        8.442211        0.187815
  H           -0.738031        7.458955       -0.266633
  H            0.364949        8.830245       -0.054063
  H           -1.376744        9.111990       -0.225275
  C           -0.781433        8.345086        1.633077
  N           -0.907965        8.267198        2.792076
  C           -4.470842       -2.401675        3.364846
  H           -5.434853       -2.001773        3.676554
  H           -4.637872       -3.244032        2.694819
  H           -3.923788       -1.627153        2.828893
  C           -3.710071       -2.834268        4.529836
  N           -3.099986       -3.181177        5.464077
  C           -2.367249        0.758052       -8.754516
  H           -1.891082        1.350841       -7.974602
  H           -3.141591        0.138461       -8.304071
  H           -2.828486        1.430130       -9.476993
  C           -1.377945       -0.082563       -9.416147
  N           -0.584593       -0.756678       -9.946728
  C           -3.238482       -4.065611       -7.461774
  H           -4.149465       -4.290734       -8.014793
  H           -3.363415       -3.113336       -6.947999
  H           -3.072430       -4.847183       -6.721522
  C           -2.105292       -3.994718       -8.374990
  N           -1.196552       -3.937866       -9.107326
  C           -3.854420       -1.933578       -4.575544
  H           -3.391262       -1.680763       -3.622670
  H           -3.221700       -1.568743       -5.383604
  H           -3.935699       -3.017046       -4.652294
  C           -5.176162       -1.326744       -4.664212
  N           -6.236107       -0.840106       -4.735318
  C           -0.493610        5.664171       -3.798788
  H           -0.432436        4.602168       -3.564677
  H           -1.310505        6.104978       -3.228901
  H            0.439642        6.144375       -3.507505
  C           -0.724883        5.847846       -5.225633
  N           -0.910347        5.995140       -6.369863
  C            0.253304        4.177815        0.661821
  H            0.995304        4.754451        1.212572
  H            0.573504        4.089422       -0.375512
  H            0.186212        3.181502        1.096859
  C           -1.043046        4.839690        0.728967
  N           -2.082628        5.370468        0.782814
  C           -3.875299        6.921150       -4.186281
  H           -3.274031        6.019286       -4.293611
  H           -3.242059        7.790419       -4.358845
  H           -4.668180        6.907960       -4.932984
  C           -4.450615        6.980793       -2.848908
  N           -4.911978        7.028622       -1.776429
  C           -1.086398        1.312002       -3.389300
  H           -0.924630        1.633574       -2.361281
  H           -0.815826        0.260592       -3.477198
  H           -2.141715        1.426710       -3.633328
  C           -0.274832        2.113349       -4.296117
  N            0.375986        2.755972       -5.023320
  C            3.292109        6.342335       -2.679298
  H            4.181515        6.940157       -2.484446
  H            2.513464        6.988624       -3.082315
  H            3.534465        5.578841       -3.417363
  C            2.832097        5.716226       -1.446623
  N            2.463199        5.214131       -0.458104
  C           -1.750673        1.603318        8.725787
  H           -2.465093        1.100276        8.075439
  H           -1.835074        1.189767        9.729905
  H           -0.743862        1.421100        8.352251
  C           -2.021624        3.034762        8.751537
  N           -2.238908        4.182680        8.772187
  C            2.141678       -5.667030        7.103312
  H            2.131081       -5.136972        6.151826
  H            1.518991       -6.556715        7.018926
  H            3.163450       -5.970978        7.326916
  C            1.635587       -4.802576        8.161472
  N            1.229738       -4.109344        9.010041
