12

O    1.742989  -0.547808  -0.356012
H    2.381645   0.102124  -0.703683
H    0.949081  -0.458314  -0.986364
O   -0.454856  -0.283420  -1.800847
H   -0.788266  -1.184648  -1.966945
H   -1.047046   0.057965  -1.048242
O   -1.743420   0.547024   0.356353
H   -0.949224   0.458284   0.986451
H   -2.381244  -0.103691   0.704094
O    0.454921   0.284485   1.800779
H    1.046780  -0.057795   1.048325
H    0.788610   1.185788   1.965889
