18

O   0.666045193  -2.600503172   0.138317521
H  -0.227115049  -2.712051982  -0.281868004
C   0.490021232  -1.851247678   1.341189459
H   1.466500502  -1.466176022   1.645844415
H   0.097564527  -2.488364683   2.146902740
H  -0.187588112  -1.000787499   1.200739571
O  -3.821405976  -2.118091637   0.596795346
H  -4.342989117  -1.344303030   0.251966383
C  -3.443883586  -1.809641231   1.934889393
H  -2.831494349  -2.637429600   2.305201764
H  -4.325601146  -1.719364371   2.585074667
H  -2.858527126  -0.882644791   1.996110694
O  -0.662721750   1.449094618  -1.383082065
H   0.064188300   2.119867608  -1.465650660
C  -0.353319239   0.341218776  -2.229326771
H  -1.072358530  -0.454743281  -2.019906495
H   0.657636746  -0.044472139  -2.042736771
H  -0.434616607   0.624733901  -3.287793021
