12

C  -4.219070000  -3.477410000  -1.501740000
H  -3.251530000  -3.803540000  -1.893830000
H  -4.452920000  -2.481700000  -1.890840000
H  -4.992170000  -4.178130000  -1.824640000
C  -4.154550000  -3.418790000  -0.058340000
N  -4.091140000  -3.354840000   1.104432000
C   1.502241000   0.651296000   1.710523000
H   1.309219000   1.637164000   2.143202000
H   2.493408000   0.297996000   2.009069000
H   0.746597000  -0.059850000   2.055508000
C   1.447974000   0.738517000   0.269805000
N   1.405612000   0.808047000  -0.894380000
