60

O    1.607900  -2.608622   2.254672
H    1.097031  -2.838716   1.428354
H    0.968305  -2.055292   2.796400
O    2.602422   0.266801  -0.517914
H    2.480007   1.271212  -0.423467
H    3.024004  -0.088260   0.332294
O    1.119834  -2.980568  -2.542383
H    1.568421  -2.076142  -2.745100
H    1.665928  -3.663054  -2.979194
O    1.185537   3.057759   2.041718
H    1.495311   2.238982   2.564095
H    0.185915   2.997239   2.034674
O    2.046762   0.995020   3.445291
H    2.627098   0.418944   2.867606
H    1.287059   0.375594   3.644572
O   -3.222909   0.916904  -1.730807
H   -2.342493   0.657909  -2.121936
H   -3.000955   1.792903  -1.300597
O    1.991007  -0.575442  -2.979708
H    2.354543  -0.300925  -2.085382
H    1.080034  -0.172738  -2.970369
O   -1.523499   0.156448   1.835619
H   -1.587189   1.164242   1.918961
H   -0.849283   0.015043   1.085902
O   -3.463620  -0.837920   0.234183
H   -2.817022  -0.480233   0.913336
H   -3.409143  -0.154682  -0.518563
O   -1.488866   2.792454   1.840531
H   -2.085543   3.273494   2.447355
H   -1.799844   3.028813   0.896138
O    1.895039   2.767972  -0.371939
H    1.604518   2.915676   0.631714
H    2.573150   3.449536  -0.552466
O    0.125003  -0.425707  -0.085574
H    0.188734  -1.444567  -0.033813
H    1.099106  -0.128613  -0.175773
O    0.230997  -3.039771  -0.051348
H   -0.761619  -3.110882  -0.239234
H    0.661068  -3.129659  -0.960769
O   -1.374559  -2.224473  -3.246690
H   -1.821462  -2.495121  -2.386235
H   -0.466620  -2.635171  -3.141942
O   -0.678088   0.165516  -2.521235
H   -0.986181  -0.748254  -2.897449
H   -0.436991  -0.050907  -1.557820
O    3.313841  -0.734765   1.785453
H    4.213055  -1.055759   1.994595
H    2.681129  -1.543118   1.942783
O   -0.126779   2.852570  -2.120743
H   -0.262300   1.916388  -2.420943
H    0.656709   2.819739  -1.485474
O    0.082073  -0.858236   3.615364
H   -0.389845  -1.124474   4.428797
H   -0.633140  -0.474512   2.995420
O   -2.198288   3.170251  -0.629597
H   -1.349758   3.113872  -1.227731
H   -2.609651   4.029942  -0.849797
O   -2.286867  -2.860577  -0.797965
H   -2.787448  -2.054792  -0.353487
H   -2.902977  -3.618130  -0.750014
