60

O    1.725910  -2.392689   2.410985
H    1.328094  -2.724746   1.576326
H    0.990845  -1.960631   2.907734
O    2.927224   0.458101  -0.674358
H    2.666809   1.414328  -0.574626
H    3.185853   0.167648   0.239060
O    1.301345  -3.091578  -2.658339
H    1.679280  -2.187020  -2.848786
H    1.878890  -3.719569  -3.118605
O    0.879454   3.214054   1.932157
H    1.098075   2.479653   2.565253
H   -0.101034   3.235775   1.871548
O    1.687277   1.291748   3.632241
H    2.292805   0.803284   3.026280
H    1.015818   0.610066   3.853474
O   -3.244922   0.649310  -1.481403
H   -3.923667   0.495333  -2.157851
H   -2.386428   0.417278  -1.925161
O    2.028127  -0.544382  -3.073802
H    2.442138  -0.206911  -2.246518
H    1.121910  -0.179864  -3.067380
O   -1.089273   0.482284   1.682747
H   -1.353841   1.438523   1.643774
H   -0.433094   0.297259   0.961812
O   -3.094525  -0.996845   0.672641
H   -2.379987  -0.483016   1.126342
H   -3.296408  -0.434227  -0.112339
O   -1.805182   3.059847   1.544410
H   -2.519876   3.286572   2.158777
H   -2.181172   3.189826   0.616522
O    1.877480   2.870012  -0.436672
H    1.506483   3.011479   0.495796
H    2.402764   3.661386  -0.632077
O    0.471829  -0.434006  -0.220374
H    0.562837  -1.418949  -0.083148
H    1.396853  -0.099351  -0.382819
O    0.605742  -3.077095  -0.024288
H   -0.375901  -3.201744  -0.127552
H    0.976189  -3.223352  -0.929931
O   -1.339344  -2.553904  -3.053348
H   -1.682822  -2.808573  -2.163353
H   -0.411998  -2.888330  -3.047688
O   -0.807745  -0.029255  -2.487571
H   -1.039079  -0.946018  -2.829268
H   -0.380108  -0.213072  -1.604669
O    3.163474  -0.235611   1.885473
H    4.049564  -0.376425   2.254945
H    2.667662  -1.093529   2.063970
O   -0.309795   2.749536  -2.115307
H   -0.420623   1.823850  -2.403715
H    0.476766   2.762876  -1.518523
O   -0.074881  -0.832725   3.709728
H   -0.738193  -1.084747   4.369666
H   -0.566705  -0.332106   3.001479
O   -2.655761   3.272169  -0.940788
H   -1.772162   3.195897  -1.389028
H   -3.038116   2.381254  -1.112858
O   -2.012269  -3.067575  -0.458182
H   -2.451512  -2.286227   0.010627
H   -2.535349  -3.849240  -0.222374
