15
doi: 10.1021/jp2069489
O  -0.004202283   0.081625942   2.104272124
H   0.801497717  -0.057574058   1.577572124
H  -0.217302283   1.005025942   1.896072124
O   1.743697717   0.112225942  -0.276727876
H   1.325097717  -0.627774058  -0.784227876
H   2.660697717   0.142925942  -0.575127876
O  -1.755102283  -0.516574058  -0.107127876
H  -1.315402283  -0.531774058   0.766572124
H  -1.650302283   0.419325942  -0.350327876
O  -0.305402283   2.024025942  -0.139127876
H  -0.221002283   2.875225942  -0.585527876
H   0.515997717   1.534325942  -0.349327876
O   0.223697717  -1.745674058  -1.531927876
H  -0.597702283  -1.382574058  -1.116227876
H   0.243197717  -2.672774058  -1.263027876
