18

C  -1.509690000  -0.693960000  -1.610140000
H  -1.327010000  -1.692700000  -2.017370000
H  -0.742170000  -0.000650000  -1.964400000
H  -2.491920000  -0.334310000  -1.929350000
C  -1.473570000  -0.748120000  -0.167200000
N  -1.447490000  -0.793720000   0.998938000
C   1.502241000   0.651296000   1.710523000
H   1.309219000   1.637164000   2.143202000
H   2.493408000   0.297996000   2.009069000
H   0.746597000  -0.059850000   2.055508000
C   1.447974000   0.738517000   0.269805000
N   1.405612000   0.808047000  -0.894380000
C   0.923766000   4.000693000  -1.575910000
H   0.011949000   4.478423000  -1.939550000
H   0.947903000   2.966558000  -1.929960000
H   1.805950000   4.519548000  -1.956520000
C   0.942834000   3.994846000  -0.131200000
N   0.960035000   3.982544000   1.035639000
