18

O  -3.839777402   2.233595098   0.660436763
H  -2.958345897   1.907036203   0.973588449
C  -3.600368059   3.168790682  -0.390480452
H  -4.551709193   3.344148967  -0.901254863
H  -2.868237594   2.789240199  -1.113617525
H  -3.243594915   4.128998607   0.009549480
O  -0.662721750   1.449094618  -1.383082065
H   0.064188300   2.119867608  -1.465650660
C  -0.353319239   0.341218776  -2.229326771
H  -1.072358530  -0.454743281  -2.019906495
H   0.657636746  -0.044472139  -2.042736771
H  -0.434616607   0.624733901  -3.287793021
O   4.310535586  -1.588322800   0.656128299
H   3.804372199  -1.630404735  -0.196849819
C   4.312298137  -2.894980854   1.222112691
H   4.713177833  -2.819907076   2.237066773
H   4.957796734  -3.574699304   0.648211180
H   3.302735989  -3.324433205   1.269756773
