18

O   2.622209273  -1.703002590  -1.445859723
H   1.828551432  -1.986513781  -0.909754968
C   2.781117675  -2.615822239  -2.525472890
H   3.691063626  -2.339003544  -3.065143454
H   1.934727323  -2.559520367  -3.223226661
H   2.879948338  -3.653846211  -2.177750170
O   3.570084754   2.361662577  -0.202416728
H   3.393280933   1.755669977   0.560634073
C   4.368082883   1.644741793  -1.143112807
H   4.552851717   2.311801738  -1.989632421
H   3.862427494   0.740851663  -1.508095690
H   5.333949674   1.357289092  -0.706288100
O   1.390610024   3.194080770  -1.536658882
H   2.162932299   2.881562730  -0.993525056
C   1.202977189   4.580367182  -1.302880219
H   0.374773115   4.915764831  -1.934164643
H   2.098649340   5.157710875  -1.570472348
H   0.950320401   4.800436015  -0.254328827
