48

O    3.065492   0.742446  -3.078391
H    3.550443   0.040492  -2.502765
H    3.769557   1.246851  -3.531491
O   -2.212572   0.568530  -0.347203
H   -3.038757   0.812096   0.175961
H   -1.527557   1.224894   0.013636
O   -0.467049  -0.128134  -2.256780
H   -1.317167   0.123450  -1.801020
H    0.207064   0.534957  -1.881274
O    1.291606  -0.966466  -4.185133
H    0.484642  -0.673028  -3.684164
H    1.965916  -0.265589  -3.935699
O    2.200648  -2.817336  -2.579393
H    2.366064  -3.660190  -3.046269
H    1.838480  -2.168835  -3.291046
O   -3.940835   1.183623   1.547669
H   -4.847845   1.544018   1.490254
H   -3.363690   1.938244   1.943440
O    0.417195   0.128413   2.281294
H   -0.030366   0.403483   3.140313
H   -0.246433  -0.537200   1.895767
O   -3.062107  -0.782133   3.175964
H   -2.505639  -1.275209   2.515692
H   -3.549078  -0.122290   2.596748
O   -1.316381   0.913796   4.115687
H   -2.019645   0.209747   3.851906
H   -1.272659   0.896053   5.092289
O    1.380101   1.432247  -1.166276
H    2.053535   1.437598  -1.915317
H    1.750315   0.717270  -0.546429
O   -2.258660   2.906383   2.554273
H   -1.548856   2.878562   1.858238
H   -1.893419   2.291751   3.258968
O   -1.370543  -1.469444   1.130064
H   -0.805746  -2.014051   0.514993
H   -1.744739  -0.744638   0.523066
O   -0.359322   2.143651   0.739079
H    0.007066   1.421390   1.354910
H    0.322611   2.197967   0.013166
O    4.042056  -1.130713  -1.546385
H    3.573297  -0.927944  -0.693411
H    3.491242  -1.880740  -1.922269
O    2.183224  -0.566956   0.385484
H    1.792893  -0.330312   1.271421
H    1.515658  -1.234341   0.004795
O    0.398739  -2.153847  -0.767860
H    1.011142  -2.655151  -1.391101
H    0.020080  -1.433365  -1.375397
