48

O    3.477378   1.075883  -2.483664
H    4.121695   1.646874  -2.946578
H    2.872092   0.680186  -3.214160
O   -2.121496   0.837051  -0.480122
H   -1.463747   1.348456   0.100194
H   -2.998581   1.013048  -0.017044
O   -0.162781   0.421939  -2.272704
H   -1.050020   0.635243  -1.872049
H    0.495028   0.921053  -1.677919
O    1.807513  -0.103142  -4.108020
H    1.996188  -1.027731  -3.765610
H    0.954551   0.129218  -3.654873
O    2.364954  -2.402864  -2.805589
H    3.125835  -2.050715  -2.211056
H    2.699331  -3.223339  -3.217907
O   -4.049147   1.127977   1.291489
H   -3.976654   0.205108   1.738511
H   -5.005120   1.306092   1.190852
O    0.111710  -0.376031   2.280052
H   -0.429651  -0.246760   3.119746
H   -0.534521  -0.882809   1.680816
O   -3.565868  -1.159955   2.458555
H   -2.954638  -0.769771   3.152313
H   -2.929173  -1.536068   1.794302
O   -1.794811   0.164993   4.015157
H   -2.008340   1.116586   3.689692
H   -1.823778   0.199443   4.991762
O    1.628449   1.514347  -0.654640
H    2.390556   1.603206  -1.307047
H    1.863938   0.660485  -0.158988
O   -2.344902   2.464788   2.908407
H   -1.574109   2.543840   2.285737
H   -3.072628   2.105633   2.318022
O   -1.597422  -1.527324   0.605039
H   -1.846953  -0.663998   0.129563
H   -0.974331  -1.970155  -0.036087
O   -0.329218   1.973544   1.120899
H   -0.094381   1.111920   1.607057
H    0.446871   2.115711   0.511479
O    4.119701  -1.248580  -1.254673
H    4.033232  -0.346639  -1.687592
H    3.568622  -1.150762  -0.433251
O    2.088955  -0.826484   0.530553
H    1.586714  -0.726437   1.386673
H    1.432896  -1.321354  -0.069599
O    0.368258  -1.932502  -1.153548
H    1.028916  -2.353815  -1.786600
H    0.118881  -1.075388  -1.637553
