48

O    3.481732   1.105224  -2.475533
H    4.111890   1.665694  -2.963956
H    2.849339   0.679647  -3.193209
O   -2.106394   0.819530  -0.501748
H   -1.459670   1.340932   0.085504
H   -2.993174   1.019836  -0.082312
O   -0.153823   0.393689  -2.274783
H   -1.053244   0.624757  -1.912297
H    0.487437   0.910981  -1.678149
O    1.842710  -0.059539  -4.055273
H    1.999137  -1.004259  -3.768595
H    0.960569   0.156834  -3.649125
O    2.357712  -2.429954  -2.809743
H    3.106453  -2.042308  -2.189055
H    2.728523  -3.232813  -3.218672
O   -4.062655   1.135349   1.267820
H   -3.950295   0.198768   1.720644
H   -5.022161   1.294644   1.203632
O    0.131437  -0.372690   2.267061
H   -0.379185  -0.264683   3.122191
H   -0.523264  -0.885714   1.679620
O   -3.568344  -1.101236   2.412828
H   -2.964559  -0.769405   3.136354
H   -2.938497  -1.533986   1.774689
O   -1.775502   0.166386   4.036619
H   -1.992285   1.122169   3.669744
H   -1.809274   0.231553   5.008561
O    1.600893   1.524164  -0.644079
H    2.372706   1.650095  -1.269556
H    1.850800   0.669785  -0.152793
O   -2.314611   2.409117   2.927925
H   -1.550355   2.536383   2.302563
H   -3.052544   2.106341   2.325525
O   -1.590319  -1.525563   0.625881
H   -1.838761  -0.671438   0.133897
H   -0.997531  -2.000030  -0.021174
O   -0.354069   1.967017   1.114302
H   -0.100420   1.109562   1.598767
H    0.431764   2.146995   0.528017
O    4.057115  -1.282888  -1.282250
H    4.029907  -0.367453  -1.683464
H    3.554067  -1.171274  -0.430395
O    2.093512  -0.807578   0.518661
H    1.620166  -0.732334   1.393665
H    1.433667  -1.316363  -0.064513
O    0.355832  -1.938579  -1.133455
H    0.980685  -2.391513  -1.771138
H    0.112881  -1.083851  -1.629203
