18

C  -0.869520000  -3.929380000   1.700199000
H  -0.057420000  -3.268850000   2.015352000
H  -0.697530000  -4.930670000   2.101524000
H  -1.821490000  -3.546590000   2.077146000
C  -0.916080000  -3.969960000   0.256749000
N  -0.955390000  -3.995980000  -0.909290000
C   5.300864000  -2.920090000   1.401103000
H   5.986071000  -2.139770000   1.737487000
H   5.636642000  -3.888750000   1.778233000
H   4.307359000  -2.697240000   1.799307000
C   5.234791000  -2.933140000  -0.043290000
N   5.170868000  -2.941760000  -1.207750000
C   0.923766000   4.000693000  -1.575910000
H   0.011949000   4.478423000  -1.939550000
H   0.947903000   2.966558000  -1.929960000
H   1.805950000   4.519548000  -1.956520000
C   0.942834000   3.994846000  -0.131200000
N   0.960035000   3.982544000   1.035639000
