24
doi: 10.1021/ct6002912
O    -2.3355635526    -0.0089834047    -0.0821280569
H    -1.5180155375    -0.5028273392     0.1459537706
C    -2.6475170078    -0.2581688947    -1.4485959317
H    -3.528932907      0.3399762817    -1.6947249614
H    -2.8879387974    -1.3160232389    -1.6196197288
H    -1.828677566      0.0272765909    -2.1248174072
O     1.9374183159    -1.9853807737    -0.970114078
H     1.3482230285    -1.3472873955    -0.5229275804
C     3.2255101815    -1.4109344036    -1.0254057192
H     3.8912212989    -2.1396764248    -1.4992293336
H     3.6376412026    -1.1791401306    -0.0286011764
H     3.2592482655    -0.4862361146    -1.6264984876
O    -0.7557287557     2.0153932632     0.8781070905
H    -1.5376628391     1.5343987017     0.5173787591
C    -0.4132466643     3.0667167807    -0.0178310308
H     0.4820486217     3.5541910371     0.3769651565
H    -1.2146068282     3.8151164378    -0.0815934349
H    -0.1928327423     2.6997961564    -1.0309879635
O     0.2836157536    -0.4741512375     0.7346967525
H     0.1574514015     0.5003032722     0.8634900118
C     0.6244960618    -1.0823590435     1.9824934883
H     0.8702035402    -2.124933223      1.7699739654
H    -0.2111202082    -1.0417012323     2.6927734961
H     1.5003605501    -0.5997827892     2.4340064092