60

O    1.817869  -2.316276   2.412570
H    1.338673  -2.641333   1.600213
H    1.129474  -1.783221   2.913686
O    2.602603   0.460913  -0.525459
H    2.407964   1.459144  -0.478255
H    3.054009   0.185501   0.338476
O    1.296872  -2.984759  -2.410684
H    1.677040  -2.057525  -2.637899
H    1.889206  -3.634558  -2.837124
O    0.920285   3.310569   1.859007
H    1.287371   2.547542   2.424697
H   -0.066733   3.138984   1.796300
O    1.946939   1.397260   3.365560
H    2.577716   0.835876   2.828625
H    1.247430   0.726135   3.612661
O   -3.196679   0.658697  -1.569516
H   -3.820913   0.627791  -2.322194
H   -2.291001   0.436658  -1.971010
O    1.990290  -0.531650  -2.933911
H    2.349836  -0.191797  -2.060292
H    1.062037  -0.181396  -2.937260
O   -1.517384   0.145131   1.831953
H   -1.651127   1.153941   1.798923
H   -0.826153  -0.015828   1.103274
O   -3.403225  -1.145184   0.427806
H   -2.764680  -0.682841   1.055929
H   -3.447187  -0.495774  -0.334669
O   -1.689468   2.741443   1.537311
H   -2.317014   3.222563   2.112432
H   -2.004023   2.938614   0.559355
O    1.745763   2.913082  -0.500927
H    1.414436   3.107865   0.481599
H    2.380068   3.627058  -0.711826
O    0.208984  -0.426079  -0.032031
H    0.358109  -1.433146   0.056930
H    1.152210  -0.042223  -0.143308
O    0.507120  -3.017353   0.117979
H   -0.480898  -3.166400  -0.042384
H    0.918796  -3.113844  -0.798643
O   -1.250358  -2.414947  -3.081534
H   -1.653692  -2.701687  -2.205087
H   -0.315228  -2.764115  -2.992581
O   -0.757984   0.032825  -2.418779
H   -0.979598  -0.915384  -2.779818
H   -0.421432  -0.160776  -1.474432
O    3.373545  -0.338657   1.835323
H    4.291814  -0.568871   2.078026
H    2.805832  -1.182282   2.039333
O   -0.239232   2.787713  -2.309028
H   -0.360369   1.823583  -2.497253
H    0.514992   2.829293  -1.644392
O    0.161425  -0.607230   3.672487
H   -0.283677  -0.858492   4.505546
H   -0.584643  -0.321257   3.035820
O   -2.442652   3.168995  -0.868517
H   -1.590916   3.122467  -1.421370
H   -2.872226   2.296664  -1.105742
O   -2.035718  -3.066390  -0.591953
H   -2.605101  -2.309786  -0.157333
H   -2.573676  -3.879208  -0.515538
