18
doi: 10.1021/jp2069489
O   0.161625757   2.680092658   0.338838928
H   0.154525757   3.147592658   1.182638928
H  -0.714274243   2.228192658   0.297038928
O  -2.377574243  -1.256207342   0.342238928
H  -1.571374243  -1.760607342   0.080338928
H  -2.681874243  -1.684207342   1.151438928
O   2.375925757   1.255092658  -0.343961072
H   2.680125757   1.681292658  -1.154161072
H   1.571325757   1.761592658  -0.081261072
O  -0.161274243  -2.678307342  -0.340461072
H   0.715325757  -2.227907342  -0.297761072
H  -0.155074243  -3.144207342  -1.185161072
O   2.272025757  -1.461807342  -0.282761072
H   2.883725757  -1.705407342   0.422238928
H   2.300125757  -0.476007342  -0.309861072
O  -2.270874243   1.461192658   0.286138928
H  -2.881074243   1.703292658  -0.420661072
H  -2.299174243   0.475492658   0.314638928
