18

C  -4.697980000  -0.249690000   1.746215000
H  -4.927570000   0.755530000   2.111799000
H  -3.709180000  -0.561560000   2.093253000
H  -5.432280000  -0.961520000   2.128066000
C  -4.714100000  -0.247110000   0.301670000
N  -4.729750000  -0.234960000  -0.865260000
C  -5.181310000   2.853865000  -1.626100000
H  -5.488260000   3.811434000  -2.053310000
H  -5.857590000   2.068112000  -1.968630000
H  -4.170750000   2.611402000  -1.966640000
C  -5.187260000   2.919160000  -0.181450000
N  -5.181700000   2.970641000   0.983640000
C   4.214163000   3.378139000   1.593627000
H   3.242643000   3.657109000   2.012358000
H   4.969258000   4.086643000   1.941290000
H   4.482966000   2.372549000   1.931698000
C   4.130759000   3.388436000   0.150192000
N   4.050180000   3.381449000  -1.013420000
