84
doi: 10.1063/1.4809528
H     -0.21075700      2.69752700      2.25046500
O     -1.08103700      2.31673800      2.42452600
C     -2.03508900      3.26842200      1.99760200
H     -1.91225100      4.20206800      2.54720600
H     -1.91193500      3.47687700      0.93453000
H     -3.04731700      2.89815000      2.16234400
H      1.50770300      0.22635400     -1.90949000
O      1.74959700      0.34685800     -0.98217000
C      0.54239700      0.57766600     -0.28101100
H     -0.13116000     -0.27052400     -0.40104500
H      0.73298200      0.71726700      0.78216100
H      0.04078200      1.46701100     -0.65963600
H     -2.20479800      2.32082600     -1.55577300
O     -1.81295600      3.14322900     -1.88198100
C     -2.87574500      3.97677700     -2.29210100
H     -3.54283400      4.17974100     -1.45369400
H     -2.49319400      4.92550600     -2.66940400
H     -3.45208400      3.49474900     -3.08234300
H      2.63316100     -0.71987200      2.53008900
O      2.05442900     -1.00491100      3.24922000
C      1.58763700      0.16098100      3.89701800
H      1.07959400      0.81245500      3.18694700
H      2.42016500      0.71371500      4.33297200
H      0.88660000     -0.09626000      4.69128200
H     -1.11761700     -3.61421600     -0.66997700
O     -1.77767900     -3.55765700     -1.37628100
C     -3.02387600     -3.90440000     -0.81120100
H     -3.28973800     -3.20391100     -0.01905200
H     -3.80613800     -3.88161200     -1.57019700
H     -2.98151100     -4.90725100     -0.38522700
H      1.03381700      3.81876300      0.74290500
O      1.27189200      3.43166500      1.59556600
C      2.64726200      3.11543400      1.53969000
H      2.95564000      2.57564500      2.43507200
H      3.24259100      4.02519600      1.45993800
H      2.85701200      2.49259000      0.67003100
H     -0.33689600      3.90053300     -1.26256800
O      0.48711900      4.24502300     -0.89465400
C      1.49637600      4.04069400     -1.86168100
H      1.63924400      2.97564700     -2.04482800
H      2.44245100      4.46100900     -1.52002000
H      1.22318300      4.51881500     -2.80269500
H      0.25703900     -3.65468500      1.52776400
O      0.10972600     -3.61479300      0.57482800
C      1.26311000     -3.02583900      0.00726500
H      1.48603200     -2.08382400      0.50685000
H      1.11619700     -2.82777000     -1.05503400
H      2.12409800     -3.68432000      0.12372300
H      1.18534200     -2.52299000      3.30378600
O      0.65930200     -3.33323700      3.25157100
C      0.51140000     -3.82539100      4.56572900
H      0.00542400     -3.08917200      5.19101900
H      1.48735900     -4.03770500      5.00327000
H     -0.07637400     -4.74364700      4.56511700
H     -1.86267500      0.78586300      2.00654600
O     -2.25720500     -0.00441800      1.61409100
C     -1.62579700     -1.12495400      2.19879800
H     -0.55672300     -1.10991900      1.98920000
H     -1.76156900     -1.12040600      3.28049000
H     -2.04017700     -2.05131100      1.80172200
H      2.89159500      0.03980400      0.31761000
O      3.47164700     -0.19511700      1.05600400
C      4.66765700     -0.70246800      0.50478600
H      4.45973800     -1.58092800     -0.10693000
H      5.36210300     -0.98629700      1.29592400
H      5.14476400      0.05035700     -0.12338600
H      0.26269100     -0.89880300     -3.58314600
O      0.75383800     -0.07103800     -3.49672900
C     -0.05395100      0.95279400     -4.03946300
H      0.45031500      1.91673600     -3.97389100
H     -0.27453800      0.74707400     -5.08713300
H     -0.99639200      1.01976900     -3.49692700
H     -1.14488200     -2.79685400     -2.83276800
O     -0.69788600     -2.37722200     -3.58016900
C     -0.13578400     -3.41016700     -4.36160300
H     -0.91602800     -4.08265500     -4.71935100
H      0.38799600     -2.99543700     -5.22328100
H      0.57361900     -3.98926400     -3.76945700
H     -2.75369300      0.51668200     -0.00487100
O     -2.89778500      0.85134900     -0.89984400
C     -3.00667300     -0.27484900     -1.74541500
H     -2.07553300     -0.83993900     -1.73873800
H     -3.80909200     -0.93016000     -1.40617000
H     -3.21781200      0.03077900     -2.77021200