18

O  -1.776108874  -2.741384797  -1.019308298
H  -2.520094035  -2.452295987  -0.420778302
C  -2.174025166  -3.952700964  -1.647004581
H  -1.359803895  -4.272673416  -2.304149236
H  -3.075973971  -3.808692420  -2.256751112
H  -2.370225393  -4.752784761  -0.918966137
O  -0.662721750   1.449094618  -1.383082065
H   0.064188300   2.119867608  -1.465650660
C  -0.353319239   0.341218776  -2.229326771
H  -1.072358530  -0.454743281  -2.019906495
H   0.657636746  -0.044472139  -2.042736771
H  -0.434616607   0.624733901  -3.287793021
O   3.570084754   2.361662577  -0.202416728
H   3.393280933   1.755669977   0.560634073
C   4.368082883   1.644741793  -1.143112807
H   4.552851717   2.311801738  -1.989632421
H   3.862427494   0.740851663  -1.508095690
H   5.333949674   1.357289092  -0.706288100
