18

O  -1.776108874  -2.741384797  -1.019308298
H  -2.520094035  -2.452295987  -0.420778302
C  -2.174025166  -3.952700964  -1.647004581
H  -1.359803895  -4.272673416  -2.304149236
H  -3.075973971  -3.808692420  -2.256751112
H  -2.370225393  -4.752784761  -0.918966137
O   4.310535586  -1.588322800   0.656128299
H   3.804372199  -1.630404735  -0.196849819
C   4.312298137  -2.894980854   1.222112691
H   4.713177833  -2.819907076   2.237066773
H   4.957796734  -3.574699304   0.648211180
H   3.302735989  -3.324433205   1.269756773
O  -5.201143618   0.064582726  -0.172223772
H  -4.686891530   0.869258890   0.107806143
C  -6.513192168   0.171391798   0.359883449
H  -7.049381312  -0.749234190   0.111361174
H  -7.057741163   1.017801101  -0.081819420
H  -6.514770575   0.292264928   1.453058834
