24
doi: 10.1002/qua.26222
C    -1.586555    -2.953674    -1.442414
H    -2.590476    -2.991272    -1.872967
H    -1.030235    -3.838827    -1.761235
H    -1.072547    -2.055435    -1.796525
C    -1.668079    -2.912152     0.015601
N    -1.728150    -2.871021     1.174779
C     0.015907     0.002967     1.984172
H     1.049452    -0.036343     2.339938
H    -0.535150    -0.871524     2.342003
H    -0.466357     0.918026     2.339899
C     0.014721     0.001260     0.525479
N     0.013283    -0.000075    -0.638506
C    -1.808272     2.820877    -1.445207
H    -2.854026     2.753828    -1.755935
H    -1.267876     1.937655    -1.797820
H    -1.364251     3.717789    -1.884563
C    -1.722146     2.881630     0.011869
N    -1.648721     2.921888     1.170308
C     3.369449     0.124477    -1.452616
H     3.913430    -0.718866    -1.885621
H     3.846120     1.055260    -1.770521
H     2.334146     0.108659    -1.805088
C     3.377754     0.030528     0.005211
N     3.375172    -0.044284     1.164258
