18

O  -1.776108874  -2.741384797  -1.019308298
H  -2.520094035  -2.452295987  -0.420778302
C  -2.174025166  -3.952700964  -1.647004581
H  -1.359803895  -4.272673416  -2.304149236
H  -3.075973971  -3.808692420  -2.256751112
H  -2.370225393  -4.752784761  -0.918966137
O   1.390610024   3.194080770  -1.536658882
H   2.162932299   2.881562730  -0.993525056
C   1.202977189   4.580367182  -1.302880219
H   0.374773115   4.915764831  -1.934164643
H   2.098649340   5.157710875  -1.570472348
H   0.950320401   4.800436015  -0.254328827
O  -5.201143618   0.064582726  -0.172223772
H  -4.686891530   0.869258890   0.107806143
C  -6.513192168   0.171391798   0.359883449
H  -7.049381312  -0.749234190   0.111361174
H  -7.057741163   1.017801101  -0.081819420
H  -6.514770575   0.292264928   1.453058834
