24
doi: 10.1021/ct6002912
O    -0.7679582028    -1.1277346601    -1.4045987055
H     0.1699493658    -1.0879837928    -1.0808120351
C    -0.7457123046    -1.0062111733    -2.8219424661
H    -1.7825499105    -0.9965625928    -3.1698635911
H    -0.2321883253    -1.8587098956    -3.2872616448
H    -0.2560674696    -0.0799151965    -3.1540688271
O    -1.6835503762     0.9638050714     0.0442027489
H    -1.4454759115     0.2053689853    -0.5521930478
C    -2.6763417311     0.513709313      0.9543110549
H    -2.9161472041     1.3449003647     1.6240716071
H    -2.3364754327    -0.338324518      1.5620698942
H    -3.5961439738     0.2182035734     0.4307630634
O     0.8525725923     1.4849918184     0.8818649966
H    -0.1022332899     1.4135173815     0.6204376709
C     0.9276533592     1.5988444994     2.2941632732
H     1.9844518663     1.6765507997     2.5659613651
H     0.4993684613     0.7274035868     2.8132308981
H     0.4148761846     2.5023731511     2.652683479
O     1.7405126264    -0.6960941053    -0.4814878613
H     1.5467033941     0.1269427135     0.0378990728
C     2.3731365632    -1.6330083592     0.3782589669
H     2.5624289607    -2.5405364944    -0.2019649278
H     1.7482272732    -1.8999719111     1.2438593168
H     3.3362475733    -1.25300683       0.7465933036