60
doi: 10.1021/ct6002912
O    -2.9106357807     1.6345734413     0.8088125305
H    -3.4678597798     0.9749866050     0.3118880515
C    -3.7853656038     2.5131578127     1.5010416906
H    -3.1725088967     3.1885099735     2.1053541918
H    -4.4590638339     1.9611510512     2.1697698201
H    -4.3952975765     3.1199895565     0.8153006688
O    -0.7569878475     2.6846427242    -0.4784871985
H    -1.5670075923     2.3271238346    -0.0334515002
C    -0.5686924461     1.9751853845    -1.7055142373
H     0.4652194544     2.1372777990    -2.0242444876
H    -1.2427606109     2.3561812452    -2.4860784869
H    -0.7265904104     0.8963642578    -1.5840300643
O    -3.2176174583    -2.4523649159    -0.6716967115
H    -2.3031004868    -2.1650043003    -0.9317272488
C    -3.0927877155    -3.2968540886     0.4697550663
H    -4.0690182947    -3.3446432359     0.9614628584
H    -2.3503994298    -2.9141081727     1.1816297348
H    -2.8056641851    -4.3171925270     0.1764241629
O    -4.5176123085    -0.1169467192    -0.4374491163
H    -4.0692016723    -1.0065309134    -0.4621355292
C    -4.9041495423     0.2060949837    -1.7659214528
H    -5.3979535363     1.1823391483    -1.7426837955
H    -5.6136676743    -0.5315255330    -2.1643990267
H    -4.0445983490     0.2663547174    -2.4494876474
O    -0.7160832790    -1.5413880010    -1.0793570482
H    -0.4315631503    -1.4597303269    -0.1272249479
C     0.2543663159    -2.3235462990    -1.7707590026
H    -0.0030890574    -2.3060161167    -2.8337789487
H     0.2537683042    -3.3713255638    -1.4330689823
H     1.2631058971    -1.9125353687    -1.6425636684
O    -0.0472043440    -1.4949527565     1.5218911447
H     0.9050170955    -1.7502166071     1.6226955641
C    -0.2555294463    -0.2798708885     2.2485709030
H    -1.2416610662     0.1065256115     1.9790577894
H     0.4956384807     0.4796291130     1.9987546113
H    -0.2288754470    -0.4661919893     3.3314226439
O     1.4942888781     2.5338429627     0.9232341877
H     0.6067232521     2.5728728380     0.4629091656
C     1.7288140559     3.7893455435     1.5449643580
H     2.7065055004     3.7447762787     2.0341813535
H     0.9708719453     4.0034719808     2.3107969772
H     1.7342410703     4.6178567144     0.8218495507
O     3.0515240150     1.5908761557    -1.0649790505
H     2.5264114662     1.9405507191    -0.2954258175
C     4.1372285623     2.4732790497    -1.3062676237
H     4.6644758586     2.1201157808    -2.1974882680
H     4.8505860380     2.5011408539    -0.4687199813
H     3.7868674303     3.4965179200    -1.4995139879
O     3.4955948580    -1.0717204741    -0.7457569275
H     3.3163499620    -0.1011586215    -0.8602804499
C     4.8079469563    -1.3408279910    -1.2161677264
H     4.9895251008    -2.4139373065    -1.1060385470
H     5.5757080986    -0.7995273166    -0.6436920790
H     4.9156100068    -1.0820198254    -2.2787021553
O     2.6079837002    -2.0750502997     1.6353489637
H     2.9767495013    -1.6726863880     0.8093322001
C     2.9479756931    -3.4535546280     1.6464631385
H     2.4877788041    -3.9010517979     2.5319944472
H     4.0357097562    -3.6002084231     1.7135896443
H     2.5781735841    -3.9846758793     0.7568453097