12
doi: 10.1021/jp2069489
O  -1.320198601  -1.380390210  -0.358727797
H  -1.738398601  -1.594990210  -1.201527797
H  -1.483398601  -0.416890210  -0.235227797
O   1.405201399  -1.341990210  -0.003327797
H   0.447601399  -1.480790210  -0.188027797
H   1.617101399  -1.979090210   0.689872203
O   1.309001399   1.370509790   0.430672203
H   1.467201399   0.402609790   0.338572203
H   1.950901399   1.782309790  -0.160727797
O  -1.393998601   1.351909790  -0.068627797
H  -0.431598601   1.494909790   0.085072203
H  -1.829498601   1.791309790   0.672172203
