36

O    2.264033   2.275973  -0.300381
H    2.880956   3.018420  -0.146502
H    1.405883   2.694270  -0.677358
O   -0.111497  -1.088162   3.140692
H    0.471981  -0.412604   2.701754
H   -1.032224  -0.776807   2.889644
O    0.205920   1.026943  -3.063739
H    1.154385   0.726689  -2.810375
H    0.200188   1.118770  -4.036950
O   -2.466241  -0.346180   2.042600
H   -2.545732  -1.121451   1.368453
H   -3.323078  -0.307986   2.510975
O    2.533885   0.293625  -2.121666
H    2.231179  -0.469617  -1.560279
H    2.601494   1.045033  -1.460442
O    1.171295  -1.389130  -0.458004
H    0.284480  -1.119961  -0.871461
H    0.908637  -2.149509   0.146213
O    1.177093   0.535381   1.366800
H    1.722330   1.263323   0.935090
H    1.245461  -0.221434   0.690724
O   -1.151888  -0.508956  -1.396847
H   -0.791094  -0.023842  -2.200997
H   -1.231626   0.233814  -0.706997
O   -2.402285  -2.263426   0.281535
H   -2.081668  -1.746378  -0.505364
H   -1.561066  -2.683361   0.632158
O   -0.004395  -2.952331   1.316150
H   -0.007866  -2.292573   2.106396
H    0.247768  -3.819081   1.690674
O   -1.191861   1.358516   0.487055
H   -0.294091   1.100563   0.883794
H   -1.838965   0.908390   1.112785
O   -0.028973   3.063231  -1.295306
H   -0.624884   2.619277  -0.633180
H   -0.017530   2.410572  -2.057644
