36

O    2.279363   2.297839  -0.284430
H    2.871367   3.061369  -0.157426
H    1.388663   2.680307  -0.675004
O   -0.107418  -1.122614   3.087626
H    0.482500  -0.421884   2.698435
H   -1.026222  -0.780723   2.895615
O    0.200515   1.013535  -3.087602
H    1.155765   0.715447  -2.784522
H    0.231979   1.095745  -4.058130
O   -2.496585  -0.336838   2.046678
H   -2.532603  -1.120239   1.352221
H   -3.363033  -0.330253   2.492270
O    2.473108   0.308701  -2.137483
H    2.224405  -0.472378  -1.572680
H    2.600587   1.042525  -1.471117
O    1.174662  -1.374768  -0.460546
H    0.282165  -1.114766  -0.871780
H    0.942771  -2.162910   0.109820
O    1.165336   0.530008   1.364990
H    1.742669   1.250870   0.979955
H    1.245195  -0.225200   0.686579
O   -1.149560  -0.514798  -1.379943
H   -0.835277  -0.045163  -2.205528
H   -1.232770   0.236074  -0.697147
O   -2.398732  -2.217364   0.314790
H   -2.095857  -1.737076  -0.502766
H   -1.574065  -2.686790   0.626566
O    0.017407  -2.974402   1.321296
H   -0.004878  -2.271951   2.097191
H    0.263075  -3.823146   1.732016
O   -1.186279   1.357325   0.478366
H   -0.290540   1.100572   0.883978
H   -1.846443   0.955872   1.113834
O    0.026744   3.036563  -1.264665
H   -0.613865   2.629320  -0.620330
H   -0.014143   2.421192  -2.051125
