12

O    0.622517  -1.808000   0.079574
H    1.532563  -1.885193   0.408205
H    0.168042  -1.257531   0.772180
O   -1.197437   1.518376  -0.297079
H   -2.027428   1.180900  -0.671827
H   -0.505499   1.113438  -0.888291
O    0.657673   0.212541  -1.712580
H    1.503544   0.664754  -1.567361
H    0.707499  -0.586110  -1.121583
O   -0.616341  -0.097500   1.761577
H   -0.900244   0.534390   1.046199
H    0.096650   0.380991   2.213069
