30
doi: 10.1002/qua.26222
C     1.077981     2.312580    -1.776508
H     1.593331     3.054123    -2.392467
H     0.079708     2.671006    -1.515419
H     0.979476     1.374807    -2.331154
C     1.841233     2.060641    -0.557496
N     2.462576     1.864494     0.405061
C    -0.992907    -1.911106    -0.757369
H    -0.276101    -2.391155    -0.084731
H    -0.635386    -2.017848    -1.784163
H    -1.981769    -2.365803    -0.650019
C    -1.080095    -0.494282    -0.419827
N    -1.170834     0.631870    -0.141761
C    -4.545439     1.191792     0.101934
H    -5.047248     1.373096     1.055848
H    -5.109460     1.682885    -0.695143
H    -3.533662     1.605905     0.138829
C    -4.462291    -0.243897    -0.155175
N    -4.386192    -1.384722    -0.360053
C     0.620319     0.830101     2.819898
H     1.513703     1.444828     2.951227
H     0.117766     0.687712     3.780133
H    -0.051335     1.336635     2.120717
C     0.995449    -0.463903     2.257196
N     1.282808    -1.500380     1.816960
C     3.781409    -1.291031    -0.184211
H     4.739822    -1.438276    -0.688792
H     3.558213    -2.147515     0.455936
H     3.824603    -0.392642     0.438587
C     2.718464    -1.128347    -1.171833
N     1.883586    -0.990270    -1.968642
	
