24

O    0.535765   2.160074   0.128320
H   -0.415213   1.914285  -0.332478
H    0.622931   3.130519   0.109060
O   -1.850951  -0.377899   1.171740
H   -0.983288  -0.022494   1.715635
H   -2.563922  -0.509904   1.822780
O   -1.603135   1.376444  -0.880310
H   -1.908180   0.793254  -0.129531
H   -1.224282   0.694500  -1.540533
O    1.723431  -1.331828   0.950746
H    0.974710  -1.854739   0.560945
H    2.003832  -0.774190   0.177699
O   -0.377724  -0.487068  -2.287618
H   -0.501838  -1.263759  -1.680824
H    0.552012  -0.210481  -2.075972
O    1.973761   0.414701  -1.155116
H    1.530825   1.203682  -0.685812
H    2.778843   0.761398  -1.579387
O   -0.628202  -2.239515  -0.181330
H   -1.217202  -1.621136   0.374300
H   -1.035498  -3.123207  -0.136246
O    0.251813   0.453782   2.222896
H    0.897910  -0.251976   1.863074
H    0.418597   1.226329   1.612747
