36

O    0.928005  -3.113740  -0.311126
H    0.514781  -2.526961  -0.988709
H    1.061921  -3.971300  -0.743105
O   -2.773347   1.468128  -0.913729
H   -2.273857   1.296058  -1.745961
H   -2.608021   0.673769  -0.361788
O    2.710487  -1.538591   1.015342
H    2.183927  -2.229694   0.550840
H    2.183531  -1.351627   1.825631
O   -0.960562   3.068983   0.166587
H   -1.301525   3.955141   0.362766
H   -1.731703   2.554302  -0.213924
O    0.900709  -0.941836   3.040358
H    1.105562  -0.853073   3.983410
H    0.653616  -0.040065   2.725655
O   -0.798388  -2.720510   1.808200
H   -0.206782  -2.189234   2.389526
H   -0.207832  -3.003326   1.072168
O   -0.311634  -1.128457  -1.568753
H   -0.888008  -0.910728  -0.789627
H   -0.559196  -0.467531  -2.263095
O   -1.648151  -0.456587   0.669180
H   -1.494973  -1.331328   1.123633
H   -0.981725   0.157946   1.064509
O    0.346081   1.202399   1.554332
H    0.925964   0.965496   0.782210
H   -0.134582   2.013700   1.257619
O    1.748854   0.376034  -0.581526
H    1.054004  -0.184475  -1.007611
H    2.277712  -0.272491  -0.038305
O    0.847769   2.676149  -1.837727
H    0.243380   2.959407  -1.110210
H    1.403329   1.982906  -1.423450
O   -0.944688   1.057948  -2.955055
H   -0.240142   1.708574  -2.668983
H   -1.053513   1.177008  -3.910888
