24
doi: 10.1021/ct6002912
O     1.1386907544    -1.4558998651    -0.0824200597
H     0.1514631843    -1.3918625034    -0.0523264935
C     1.4963674049    -2.2372614063    -1.2119162038
H     2.5884491087    -2.2905839398    -1.2453328654
H     1.1430084538    -1.7986999361    -2.1571911232
H     1.1028017103    -3.2611717142    -1.1369618164
O    -1.5787514148    -1.2118882917     0.0136873116
H    -1.7878649171    -0.2641824711    -0.1600710919
C    -2.0802040943    -1.535716029      1.3053655714
H    -1.7857516944    -2.5659009477     1.5229634059
H    -3.1772223959    -1.4751300521     1.3367488084
H    -1.6704062794    -0.881905532      2.0876824831
O    -2.1502786509     1.4643815099    -0.2949623347
H    -3.0036916598     1.6729542312    -0.7031946496
C    -1.1475866114     2.3188084309    -0.8720669121
H    -0.1815271851     1.9976898109    -0.4738155471
H    -1.3271198166     3.3661976261    -0.5972352251
H    -1.1277517883     2.23208893      -1.9666037772
O     1.878368313      1.2043887108    -0.047241448
H     1.6720738287     0.2415824991    -0.096223126
C     2.5466024331     1.4319163132     1.1767394557
H     2.7656159838     2.5030340344     1.2434992735
H     3.5022030887     0.8871732864     1.2420951231
H     1.9404135715     1.1543763144     2.0547274015