48

O    3.109552   0.953240  -3.328626
H    3.634486   0.328336  -2.750980
H    3.751446   1.535890  -3.761837
O   -2.258295   0.474717  -0.313835
H   -3.060448   0.814192   0.153407
H   -1.539671   1.068411   0.033189
O   -0.467200  -0.282340  -2.239765
H   -1.315662   0.014623  -1.847065
H    0.202733   0.365720  -1.890461
O    1.345679  -0.902546  -4.269569
H    0.547453  -0.637984  -3.765820
H    1.988443  -0.174837  -4.096976
O    2.279723  -2.693707  -2.531180
H    2.575706  -3.498239  -2.984683
H    1.914594  -2.102082  -3.250831
O   -3.965022   1.388032   1.539464
H   -4.836638   1.808939   1.477051
H   -3.350296   2.090504   1.899599
O    0.405221  -0.097556   2.392621
H   -0.039892   0.272910   3.193408
H   -0.280041  -0.719774   2.031693
O   -3.359231  -0.661592   3.239378
H   -2.828794  -1.210980   2.627090
H   -3.739973   0.034670   2.652002
O   -1.391969   0.919787   4.155589
H   -2.143179   0.298405   3.938451
H   -1.369843   0.978405   5.123127
O    1.453640   1.281792  -1.227669
H    2.082056   1.399161  -1.980266
H    1.862488   0.599789  -0.633572
O   -2.086736   3.024938   2.512412
H   -1.397121   2.874662   1.829950
H   -1.819790   2.399263   3.227293
O   -1.561364  -1.576477   1.268620
H   -1.033953  -2.176473   0.703236
H   -1.883371  -0.875518   0.637465
O   -0.273312   1.917940   0.767398
H    0.080375   1.212141   1.373990
H    0.387773   1.989706   0.044367
O    4.115400  -0.863727  -1.678057
H    3.714388  -0.698714  -0.800633
H    3.578513  -1.626623  -2.005876
O    2.247535  -0.714891   0.395689
H    1.887545  -0.430621   1.261941
H    1.573375  -1.369786   0.070679
O    0.333097  -2.329296  -0.663235
H    0.978546  -2.768013  -1.265217
H   -0.047965  -1.634392  -1.262957
